10196837
  -OEChem-11302503113D

 71 75  0     1  0  0  0  0  0999 V2000
   -2.4381   -2.0308    0.2860 O   0  0  0  0  0  0  0  0  0  0  0  0
    0.4510   -1.2261   -1.8009 O   0  0  0  0  0  0  0  0  0  0  0  0
   -2.7987    0.1995    0.8765 O   0  0  0  0  0  0  0  0  0  0  0  0
   -0.1351   -0.3862    0.2955 O   0  0  0  0  0  0  0  0  0  0  0  0
   -3.3568   -2.6211   -2.4505 O   0  0  0  0  0  0  0  0  0  0  0  0
   -1.1694   -3.6091   -4.0614 O   0  0  0  0  0  0  0  0  0  0  0  0
   -4.8120   -2.7523    1.6949 O   0  0  0  0  0  0  0  0  0  0  0  0
   -5.4047   -0.9240    3.8499 O   0  0  0  0  0  0  0  0  0  0  0  0
   -5.3586    1.8591    2.8768 O   0  0  0  0  0  0  0  0  0  0  0  0
    2.6014   -1.8013   -3.4138 O   0  0  0  0  0  0  0  0  0  0  0  0
    3.1209    1.3637    0.4445 O   0  3  0  0  0  0  0  0  0  0  0  0
    3.6824   -2.9947    2.5159 O   0  0  0  0  0  0  0  0  0  0  0  0
    7.3835   -0.0307    2.1322 O   0  0  0  0  0  0  0  0  0  0  0  0
    0.0193    3.2221   -3.7254 O   0  0  0  0  0  0  0  0  0  0  0  0
   -1.0631    4.9945    0.5904 O   0  0  0  0  0  0  0  0  0  0  0  0
   -1.3035    5.0917   -2.1671 O   0  0  0  0  0  0  0  0  0  0  0  0
   -1.7715   -1.6415   -0.9146 C   0  0  2  0  0  0  0  0  0  0  0  0
   -2.0064   -2.7006   -1.9917 C   0  0  2  0  0  0  0  0  0  0  0  0
   -1.0855   -2.4826   -3.1924 C   0  0  1  0  0  0  0  0  0  0  0  0
    0.3648   -2.3006   -2.7385 C   0  0  1  0  0  0  0  0  0  0  0  0
   -0.2827   -1.4830   -0.6059 C   0  0  1  0  0  0  0  0  0  0  0  0
   -3.4190   -1.0682    0.6699 C   0  0  2  0  0  0  0  0  0  0  0  0
   -4.0767   -1.5580    1.9610 C   0  0  1  0  0  0  0  0  0  0  0  0
   -5.0398   -0.5166    2.5306 C   0  0  2  0  0  0  0  0  0  0  0  0
   -4.3849    0.8630    2.5856 C   0  0  1  0  0  0  0  0  0  0  0  0
    1.2848   -1.9653   -3.9082 C   0  0  0  0  0  0  0  0  0  0  0  0
   -3.7368    1.2023    1.2506 C   0  0  0  0  0  0  0  0  0  0  0  0
    1.1847   -0.1720    0.6200 C   0  0  0  0  0  0  0  0  0  0  0  0
    1.8544    1.1171    0.2569 C   0  0  0  0  0  0  0  0  0  0  0  0
    1.9475   -1.0966    1.2172 C   0  0  0  0  0  0  0  0  0  0  0  0
    3.3596   -0.8423    1.4788 C   0  0  0  0  0  0  0  0  0  0  0  0
    1.0214    2.1632   -0.3812 C   0  0  0  0  0  0  0  0  0  0  0  0
    3.9069    0.3790    1.0721 C   0  0  0  0  0  0  0  0  0  0  0  0
    4.1734   -1.7902    2.1061 C   0  0  0  0  0  0  0  0  0  0  0  0
    5.2577    0.6515    1.2913 C   0  0  0  0  0  0  0  0  0  0  0  0
    0.3628    3.0968    0.4106 C   0  0  0  0  0  0  0  0  0  0  0  0
    0.9083    2.2020   -1.7663 C   0  0  0  0  0  0  0  0  0  0  0  0
    5.5243   -1.5148    2.3252 C   0  0  0  0  0  0  0  0  0  0  0  0
    6.0658   -0.2958    1.9178 C   0  0  0  0  0  0  0  0  0  0  0  0
    0.1259    3.1879   -2.3676 C   0  0  0  0  0  0  0  0  0  0  0  0
   -0.4197    4.0826   -0.1908 C   0  0  0  0  0  0  0  0  0  0  0  0
   -0.5381    4.1282   -1.5799 C   0  0  0  0  0  0  0  0  0  0  0  0
   -2.1611   -0.6861   -1.2956 H   0  0  0  0  0  0  0  0  0  0  0  0
   -1.8758   -3.7097   -1.5818 H   0  0  0  0  0  0  0  0  0  0  0  0
   -1.4255   -1.6063   -3.7579 H   0  0  0  0  0  0  0  0  0  0  0  0
    0.7456   -3.2125   -2.2588 H   0  0  0  0  0  0  0  0  0  0  0  0
    0.0781   -2.4060   -0.1320 H   0  0  0  0  0  0  0  0  0  0  0  0
   -4.1658   -0.9967   -0.1326 H   0  0  0  0  0  0  0  0  0  0  0  0
   -3.3146   -1.8120    2.7087 H   0  0  0  0  0  0  0  0  0  0  0  0
   -5.9689   -0.4773    1.9485 H   0  0  0  0  0  0  0  0  0  0  0  0
   -3.6380    0.8778    3.3888 H   0  0  0  0  0  0  0  0  0  0  0  0
    1.2946   -2.7618   -4.6576 H   0  0  0  0  0  0  0  0  0  0  0  0
    0.9912   -1.0279   -4.3925 H   0  0  0  0  0  0  0  0  0  0  0  0
   -3.2016    2.1555    1.3251 H   0  0  0  0  0  0  0  0  0  0  0  0
   -4.4845    1.3315    0.4578 H   0  0  0  0  0  0  0  0  0  0  0  0
   -3.9332   -2.7941   -1.6867 H   0  0  0  0  0  0  0  0  0  0  0  0
   -0.8593   -4.3899   -3.5717 H   0  0  0  0  0  0  0  0  0  0  0  0
   -4.1926   -3.3940    1.3071 H   0  0  0  0  0  0  0  0  0  0  0  0
   -5.8032   -1.8085    3.7817 H   0  0  0  0  0  0  0  0  0  0  0  0
   -4.8999    2.7155    2.9187 H   0  0  0  0  0  0  0  0  0  0  0  0
    2.5786   -1.0963   -2.7440 H   0  0  0  0  0  0  0  0  0  0  0  0
    1.5044   -2.0354    1.5239 H   0  0  0  0  0  0  0  0  0  0  0  0
    5.6664    1.6058    0.9703 H   0  0  0  0  0  0  0  0  0  0  0  0
    0.4584    3.0570    1.4929 H   0  0  0  0  0  0  0  0  0  0  0  0
    1.4273    1.4725   -2.3830 H   0  0  0  0  0  0  0  0  0  0  0  0
    6.1569   -2.2523    2.8133 H   0  0  0  0  0  0  0  0  0  0  0  0
    2.9241   -3.2550    1.9708 H   0  0  0  0  0  0  0  0  0  0  0  0
    7.5868    0.8560    1.7876 H   0  0  0  0  0  0  0  0  0  0  0  0
   -0.5588    3.9661   -3.9680 H   0  0  0  0  0  0  0  0  0  0  0  0
   -0.8680    4.8058    1.5244 H   0  0  0  0  0  0  0  0  0  0  0  0
   -1.6844    5.6500   -1.4673 H   0  0  0  0  0  0  0  0  0  0  0  0
  1 17  1  0  0  0  0
  1 22  1  0  0  0  0
  2 20  1  0  0  0  0
  2 21  1  0  0  0  0
  3 22  1  0  0  0  0
  3 27  1  0  0  0  0
  4 21  1  0  0  0  0
  4 28  1  0  0  0  0
  5 18  1  0  0  0  0
  5 56  1  0  0  0  0
  6 19  1  0  0  0  0
  6 57  1  0  0  0  0
  7 23  1  0  0  0  0
  7 58  1  0  0  0  0
  8 24  1  0  0  0  0
  8 59  1  0  0  0  0
  9 25  1  0  0  0  0
  9 60  1  0  0  0  0
 10 26  1  0  0  0  0
 10 61  1  0  0  0  0
 11 29  2  0  0  0  0
 11 33  1  0  0  0  0
 12 34  1  0  0  0  0
 12 67  1  0  0  0  0
 13 39  1  0  0  0  0
 13 68  1  0  0  0  0
 14 40  1  0  0  0  0
 14 69  1  0  0  0  0
 15 41  1  0  0  0  0
 15 70  1  0  0  0  0
 16 42  1  0  0  0  0
 16 71  1  0  0  0  0
 17 18  1  0  0  0  0
 17 21  1  0  0  0  0
 17 43  1  0  0  0  0
 18 19  1  0  0  0  0
 18 44  1  0  0  0  0
 19 20  1  0  0  0  0
 19 45  1  0  0  0  0
 20 26  1  0  0  0  0
 20 46  1  0  0  0  0
 21 47  1  0  0  0  0
 22 23  1  0  0  0  0
 22 48  1  0  0  0  0
 23 24  1  0  0  0  0
 23 49  1  0  0  0  0
 24 25  1  0  0  0  0
 24 50  1  0  0  0  0
 25 27  1  0  0  0  0
 25 51  1  0  0  0  0
 26 52  1  0  0  0  0
 26 53  1  0  0  0  0
 27 54  1  0  0  0  0
 27 55  1  0  0  0  0
 28 29  1  0  0  0  0
 28 30  2  0  0  0  0
 29 32  1  0  0  0  0
 30 31  1  0  0  0  0
 30 62  1  0  0  0  0
 31 33  1  0  0  0  0
 31 34  2  0  0  0  0
 32 36  2  0  0  0  0
 32 37  1  0  0  0  0
 33 35  2  0  0  0  0
 34 38  1  0  0  0  0
 35 39  1  0  0  0  0
 35 63  1  0  0  0  0
 36 41  1  0  0  0  0
 36 64  1  0  0  0  0
 37 40  2  0  0  0  0
 37 65  1  0  0  0  0
 38 39  2  0  0  0  0
 38 66  1  0  0  0  0
 40 42  1  0  0  0  0
 41 42  2  0  0  0  0
M  CHG  1  11   1
M  END
> <PUBCHEM_COMPOUND_CID>
10196837

> <PUBCHEM_CONFORMER_RMSD>
1

> <PUBCHEM_CONFORMER_DIVERSEORDER>
1
277
147
27
78
176
163
122
67
165
81
302
298
26
32
130
191
281
279
158
55
316
223
230
301
291
283
255
278
112
13
247
251
307
311
306
231
145
73
64
264
162
275
20
155
218
199
121
190
304
217
271
225
148
98
57
227
6
310
293
117
242
303
249
194
50
237
169
284
241
126
262
116
146
103
203
219
151
87
56
174
189
246
243
268
160
82
168
42
99
245
288
205
7
180
46
164
314
200
252
305
309
92
280
198
70
272
34
250
71
248
182
125
28
132
195
63
224
72
256
213
86
12
133
266
48
91
228
185
214
106
129
11
258
115
153
45
137
83
144
31
177
131
222
2
118
96
102
93
229
143
152
157
210
173
294
273
51
261
105
94
212
68
208
263
24
44
101
171
89
260
43
76
142
178
5
313
149
136
62
127
290
308
79
135
138
239
18
315
254
211
220
184
19
238
221
21
201
269
183
259
207
104
187
267
88
35
186
38
17
15
253
289
107
53
317
16
276
139
161
233
202
9
75
234
4
240
179
95
123
296
25
236
181
54
8
77
285
66
124
47
196
318
22
97
141
80
156
167
235
41
270
193
295
204
61
60
175
85
113
84
39
108
166
110
3
226
49
69
33
154
74
128
216
232
14
23
10
150
206
209
90
140
29
292
58
286
114
197
119
172
159
52
37
312
274
36
100
244
265
65
111
30
134
300
120
40
257
192
287
299
59
170
109
188
215
297
282

> <PUBCHEM_MMFF94_PARTIAL_CHARGES>
58
1 -0.56
10 -0.68
11 -0.87
12 -0.53
13 -0.53
14 -0.53
15 -0.53
16 -0.53
17 0.28
18 0.28
19 0.28
2 -0.56
20 0.28
21 0.56
22 0.56
23 0.28
24 0.28
25 0.28
26 0.28
27 0.28
28 0.09
29 0.85
3 -0.56
30 -0.18
31 0.03
32 0.09
33 0.92
34 0.08
35 -0.15
36 -0.15
37 -0.15
38 -0.15
39 0.08
4 -0.36
40 0.08
41 0.08
42 0.08
5 -0.68
56 0.4
57 0.4
58 0.4
59 0.4
6 -0.68
60 0.4
61 0.4
62 0.15
63 0.15
64 0.15
65 0.15
66 0.15
67 0.45
68 0.45
69 0.45
7 -0.68
70 0.45
71 0.45
8 -0.68
9 -0.68

> <PUBCHEM_EFFECTIVE_ROTOR_COUNT>
8.4

> <PUBCHEM_PHARMACOPHORE_FEATURES>
26
1 1 acceptor
1 10 acceptor
1 10 donor
1 12 donor
1 13 donor
1 14 donor
1 15 donor
1 16 donor
1 2 acceptor
1 3 acceptor
1 4 acceptor
1 5 acceptor
1 5 donor
1 6 acceptor
1 6 donor
1 7 acceptor
1 7 donor
1 8 acceptor
1 8 donor
1 9 acceptor
1 9 donor
6 11 28 29 30 31 33 rings
6 2 17 18 19 20 21 rings
6 3 22 23 24 25 27 rings
6 31 33 34 35 38 39 rings
6 32 36 37 40 41 42 rings

> <PUBCHEM_HEAVY_ATOM_COUNT>
42

> <PUBCHEM_ATOM_DEF_STEREO_COUNT>
9

> <PUBCHEM_ATOM_UDEF_STEREO_COUNT>
0

> <PUBCHEM_BOND_DEF_STEREO_COUNT>
0

> <PUBCHEM_BOND_UDEF_STEREO_COUNT>
0

> <PUBCHEM_ISOTOPIC_ATOM_COUNT>
0

> <PUBCHEM_COMPONENT_COUNT>
1

> <PUBCHEM_CACTVS_TAUTO_COUNT>
183

> <PUBCHEM_CONFORMER_ID>
009B976500000001

> <PUBCHEM_MMFF94_ENERGY>
134.4033

> <PUBCHEM_FEATURE_SELFOVERLAP>
132.131

> <PUBCHEM_SHAPE_FINGERPRINT>
10794284 68 18339095860292588328
11049842 53 17343534328878825175
11297750 10 17478073565736500003
11377469 6 17697008681546853806
11421498 54 17534097144625301030
11445158 3 17677900221485548302
12156800 1 17827940428799411588
12422481 6 18201441329152196786
12741549 16 16805312327494342853
12788726 201 17832377057228621046
13009979 54 17555431183450655918
13911987 19 17462821484576577220
13965767 371 18059577953526891330
14068700 675 17127859647186485079
14747282 125 16413513561075974344
14856354 85 18260553363621889778
15324884 4 17912389558175429095
15444296 8 18113894966506188397
15775530 1 17623292671564790108
16114785 44 17973975428591219954
161222 619 17911792479647599740
19319366 153 16753524518261955303
21033648 29 17346612871215936915
21716022 299 17047641606469771799
22121540 332 17699301962017182708
23559900 14 17769134239858819339
376196 1 14405194945131790955
5080951 261 17485604331702978130
550186 83 18191615040699685164
86090 222 16895981046309690481

> <PUBCHEM_SHAPE_MULTIPOLES>
770.43
10.9
5.56
4.76
7.64
6.81
-3.13
-4.98
16.83
-3.09
-5.04
-2.46
-2.86
-1.52

> <PUBCHEM_SHAPE_SELFOVERLAP>
1679.267

> <PUBCHEM_SHAPE_VOLUME>
412.3

> <PUBCHEM_COORDINATE_TYPE>
2
5
10

$$$$
