9856782
  -OEChem-12192511443D

 22 21  0     1  0  0  0  0  0999 V2000
   -0.1087   -0.0752   -1.6687 O   0  0  0  0  0  0  0  0  0  0  0  0
    1.6039   -1.0378    1.4080 O   0  0  0  0  0  0  0  0  0  0  0  0
   -0.8681   -1.9488    1.2783 O   0  0  0  0  0  0  0  0  0  0  0  0
   -1.4270   -2.2265   -0.9033 O   0  0  0  0  0  0  0  0  0  0  0  0
    2.4075    0.9823   -1.4375 O   0  0  0  0  0  0  0  0  0  0  0  0
   -2.4062    2.3101    0.9578 O   0  0  0  0  0  0  0  0  0  0  0  0
    3.0269    1.0925    0.7411 O   0  0  0  0  0  0  0  0  0  0  0  0
   -2.6856    0.7529   -0.6687 O   0  0  0  0  0  0  0  0  0  0  0  0
   -0.0184   -0.3307   -0.2646 C   0  0  1  0  0  0  0  0  0  0  0  0
    1.4642   -0.6427    0.0471 C   0  0  1  0  0  0  0  0  0  0  0  0
   -0.5532    0.8860    0.5166 C   0  0  0  0  0  0  0  0  0  0  0  0
   -0.8420   -1.5970   -0.0320 C   0  0  0  0  0  0  0  0  0  0  0  0
    2.3851    0.5516   -0.1505 C   0  0  0  0  0  0  0  0  0  0  0  0
   -1.9784    1.2832    0.1762 C   0  0  0  0  0  0  0  0  0  0  0  0
    1.8457   -1.4628   -0.5719 H   0  0  0  0  0  0  0  0  0  0  0  0
    0.0577    1.7684    0.2932 H   0  0  0  0  0  0  0  0  0  0  0  0
   -0.5232    0.6952    1.5948 H   0  0  0  0  0  0  0  0  0  0  0  0
    0.3179   -0.8094   -2.1427 H   0  0  0  0  0  0  0  0  0  0  0  0
    1.3330   -0.2976    1.9760 H   0  0  0  0  0  0  0  0  0  0  0  0
   -1.4022   -2.7574    1.4296 H   0  0  0  0  0  0  0  0  0  0  0  0
    2.9945    1.7598   -1.5529 H   0  0  0  0  0  0  0  0  0  0  0  0
   -3.3310    2.5649    0.7521 H   0  0  0  0  0  0  0  0  0  0  0  0
  1  9  1  0  0  0  0
  1 18  1  0  0  0  0
  2 10  1  0  0  0  0
  2 19  1  0  0  0  0
  3 12  1  0  0  0  0
  3 20  1  0  0  0  0
  4 12  2  0  0  0  0
  5 13  1  0  0  0  0
  5 21  1  0  0  0  0
  6 14  1  0  0  0  0
  6 22  1  0  0  0  0
  7 13  2  0  0  0  0
  8 14  2  0  0  0  0
  9 10  1  0  0  0  0
  9 11  1  0  0  0  0
  9 12  1  0  0  0  0
 10 13  1  0  0  0  0
 10 15  1  0  0  0  0
 11 14  1  0  0  0  0
 11 16  1  0  0  0  0
 11 17  1  0  0  0  0
M  END
> <PUBCHEM_COMPOUND_CID>
9856782

> <PUBCHEM_CONFORMER_RMSD>
0.6

> <PUBCHEM_CONFORMER_DIVERSEORDER>
1
22
12
21
34
10
11
29
31
36
16
26
17
18
24
15
27
33
8
7
5
4
6
30
23
2
3
20
28
9
13
14
25
35
19
32

> <PUBCHEM_MMFF94_PARTIAL_CHARGES>
19
1 -0.68
10 0.34
11 0.06
12 0.66
13 0.66
14 0.66
18 0.4
19 0.4
2 -0.68
20 0.5
21 0.5
22 0.5
3 -0.65
4 -0.57
5 -0.65
6 -0.65
7 -0.57
8 -0.57
9 0.34

> <PUBCHEM_EFFECTIVE_ROTOR_COUNT>
5

> <PUBCHEM_PHARMACOPHORE_FEATURES>
13
1 1 acceptor
1 1 donor
1 2 acceptor
1 2 donor
1 3 acceptor
1 4 acceptor
1 5 acceptor
1 6 acceptor
1 7 acceptor
1 8 acceptor
3 3 4 12 anion
3 5 7 13 anion
3 6 8 14 anion

> <PUBCHEM_HEAVY_ATOM_COUNT>
14

> <PUBCHEM_ATOM_DEF_STEREO_COUNT>
2

> <PUBCHEM_ATOM_UDEF_STEREO_COUNT>
0

> <PUBCHEM_BOND_DEF_STEREO_COUNT>
0

> <PUBCHEM_BOND_UDEF_STEREO_COUNT>
0

> <PUBCHEM_ISOTOPIC_ATOM_COUNT>
0

> <PUBCHEM_COMPONENT_COUNT>
1

> <PUBCHEM_CACTVS_TAUTO_COUNT>
1

> <PUBCHEM_CONFORMER_ID>
0096670E00000001

> <PUBCHEM_MMFF94_ENERGY>
17.7678

> <PUBCHEM_FEATURE_SELFOVERLAP>
66.19

> <PUBCHEM_SHAPE_FINGERPRINT>
1 1 18051133588261278999
100427 49 17547298164574362585
12138202 97 18342747324742166150
12423570 1 17697074604793430278
12716758 59 18271816730391746566
13024252 1 11819532853683142534
13538477 17 18338218436379076322
13764800 53 18340495563609735432
13839132 238 18271818869122001245
14817 1 12512381112549501319
15490181 8 18268151946546548475
15775835 57 18340487742495719632
16945 1 18271806860398670677
17834069 17 17969237662935944105
19837323 101 18201441397517914102
20653085 51 17203056187786565113
21028194 46 18341899532584235712
21040471 1 18342176618151641264
21524375 3 18338802186964704601
22802520 49 17845952765771947020
305870 269 18122623847078915264
430814 3 18198617727204083937
5084963 1 17771620161637556040
7364860 26 17550955784683525829
81228 2 18267029542574117547

> <PUBCHEM_SHAPE_MULTIPOLES>
241.16
3.68
2.14
1.27
1.02
0.48
0.14
-2.16
-0.09
-1.37
-0.38
0.23
0.14
-0.53

> <PUBCHEM_SHAPE_SELFOVERLAP>
484.698

> <PUBCHEM_SHAPE_VOLUME>
139.3

> <PUBCHEM_COORDINATE_TYPE>
2
5
10

$$$$
