15559735
  -OEChem-11302503173D

 34 36  0     0  0  0  0  0  0999 V2000
   -0.4498   -0.7089   -0.0041 O   0  0  0  0  0  0  0  0  0  0  0  0
    0.6719    2.8023    0.0324 O   0  0  0  0  0  0  0  0  0  0  0  0
   -4.4932    1.9624    0.0027 O   0  0  0  0  0  0  0  0  0  0  0  0
   -1.9729   -2.9500   -0.0083 O   0  0  0  0  0  0  0  0  0  0  0  0
   -2.1007    3.0161    0.0109 O   0  0  0  0  0  0  0  0  0  0  0  0
   -4.7333   -2.7735   -0.0076 O   0  0  0  0  0  0  0  0  0  0  0  0
    4.4988   -0.4013   -2.3936 O   0  0  0  0  0  0  0  0  0  0  0  0
    4.4758   -0.4589    2.3951 O   0  0  0  0  0  0  0  0  0  0  0  0
    5.8500   -0.7128    0.0039 O   0  0  0  0  0  0  0  0  0  0  0  0
   -2.4386    0.6823   -0.0004 C   0  0  0  0  0  0  0  0  0  0  0  0
   -1.8127   -0.5621   -0.0034 C   0  0  0  0  0  0  0  0  0  0  0  0
    0.3385    0.4311   -0.0088 C   0  0  0  0  0  0  0  0  0  0  0  0
    1.7817    0.1317   -0.0054 C   0  0  0  0  0  0  0  0  0  0  0  0
   -0.1396    1.6888    0.0040 C   0  0  0  0  0  0  0  0  0  0  0  0
   -1.6079    1.8961    0.0050 C   0  0  0  0  0  0  0  0  0  0  0  0
   -3.8330    0.7710    0.0000 C   0  0  0  0  0  0  0  0  0  0  0  0
   -2.5786   -1.7283   -0.0056 C   0  0  0  0  0  0  0  0  0  0  0  0
   -3.9710   -1.6441   -0.0054 C   0  0  0  0  0  0  0  0  0  0  0  0
   -4.5968   -0.3968   -0.0027 C   0  0  0  0  0  0  0  0  0  0  0  0
    2.4605   -0.0249    1.2040 C   0  0  0  0  0  0  0  0  0  0  0  0
    2.4720    0.0040   -1.2118 C   0  0  0  0  0  0  0  0  0  0  0  0
    3.8378   -0.2797   -1.2086 C   0  0  0  0  0  0  0  0  0  0  0  0
    3.8262   -0.3085    1.2071 C   0  0  0  0  0  0  0  0  0  0  0  0
    4.5149   -0.4359    0.0007 C   0  0  0  0  0  0  0  0  0  0  0  0
   -5.6822   -0.3284   -0.0025 H   0  0  0  0  0  0  0  0  0  0  0  0
    1.9243    0.0737    2.1456 H   0  0  0  0  0  0  0  0  0  0  0  0
    1.9516    0.1239   -2.1596 H   0  0  0  0  0  0  0  0  0  0  0  0
    1.6038    2.5310    0.0324 H   0  0  0  0  0  0  0  0  0  0  0  0
   -3.8645    2.7002    0.0005 H   0  0  0  0  0  0  0  0  0  0  0  0
   -2.6634   -3.6356   -0.0096 H   0  0  0  0  0  0  0  0  0  0  0  0
   -5.6729   -2.5223   -0.0070 H   0  0  0  0  0  0  0  0  0  0  0  0
    5.4327   -0.5976   -2.2041 H   0  0  0  0  0  0  0  0  0  0  0  0
    3.8410   -0.3364    3.1217 H   0  0  0  0  0  0  0  0  0  0  0  0
    6.1462   -0.7861    0.9278 H   0  0  0  0  0  0  0  0  0  0  0  0
  1 11  1  0  0  0  0
  1 12  1  0  0  0  0
  2 14  1  0  0  0  0
  2 28  1  0  0  0  0
  3 16  1  0  0  0  0
  3 29  1  0  0  0  0
  4 17  1  0  0  0  0
  4 30  1  0  0  0  0
  5 15  2  0  0  0  0
  6 18  1  0  0  0  0
  6 31  1  0  0  0  0
  7 22  1  0  0  0  0
  7 32  1  0  0  0  0
  8 23  1  0  0  0  0
  8 33  1  0  0  0  0
  9 24  1  0  0  0  0
  9 34  1  0  0  0  0
 10 11  2  0  0  0  0
 10 15  1  0  0  0  0
 10 16  1  0  0  0  0
 11 17  1  0  0  0  0
 12 13  1  0  0  0  0
 12 14  2  0  0  0  0
 13 20  2  0  0  0  0
 13 21  1  0  0  0  0
 14 15  1  0  0  0  0
 16 19  2  0  0  0  0
 17 18  2  0  0  0  0
 18 19  1  0  0  0  0
 19 25  1  0  0  0  0
 20 23  1  0  0  0  0
 20 26  1  0  0  0  0
 21 22  2  0  0  0  0
 21 27  1  0  0  0  0
 22 24  1  0  0  0  0
 23 24  2  0  0  0  0
M  END
> <PUBCHEM_COMPOUND_CID>
15559735

> <PUBCHEM_CONFORMER_RMSD>
0.6

> <PUBCHEM_CONFORMER_DIVERSEORDER>
1
2
3

> <PUBCHEM_MMFF94_PARTIAL_CHARGES>
34
1 -0.16
10 0.09
11 0.08
12 0.05
13 0.03
14 0.09
15 0.47
16 0.08
17 0.08
18 0.08
19 -0.15
2 -0.53
20 -0.15
21 -0.15
22 0.08
23 0.08
24 0.08
25 0.15
26 0.15
27 0.15
28 0.45
29 0.45
3 -0.53
30 0.45
31 0.45
32 0.45
33 0.45
34 0.45
4 -0.53
5 -0.57
6 -0.53
7 -0.53
8 -0.53
9 -0.53

> <PUBCHEM_EFFECTIVE_ROTOR_COUNT>
1

> <PUBCHEM_PHARMACOPHORE_FEATURES>
12
1 1 acceptor
1 2 donor
1 3 donor
1 4 donor
1 5 acceptor
1 6 donor
1 7 donor
1 8 donor
1 9 donor
6 1 10 11 12 14 15 rings
6 10 11 16 17 18 19 rings
6 13 20 21 22 23 24 rings

> <PUBCHEM_HEAVY_ATOM_COUNT>
24

> <PUBCHEM_ATOM_DEF_STEREO_COUNT>
0

> <PUBCHEM_ATOM_UDEF_STEREO_COUNT>
0

> <PUBCHEM_BOND_DEF_STEREO_COUNT>
0

> <PUBCHEM_BOND_UDEF_STEREO_COUNT>
0

> <PUBCHEM_ISOTOPIC_ATOM_COUNT>
0

> <PUBCHEM_COMPONENT_COUNT>
1

> <PUBCHEM_CACTVS_TAUTO_COUNT>
1000

> <PUBCHEM_CONFORMER_ID>
00ED6C3700000001

> <PUBCHEM_MMFF94_ENERGY>
70.6593

> <PUBCHEM_FEATURE_SELFOVERLAP>
60.943

> <PUBCHEM_SHAPE_FINGERPRINT>
10319926 262 18198602394909394426
10411042 1 18266741475561494831
11370993 144 16773526485785787923
11552529 35 14260201337359169077
11796584 16 18126289628359365622
12236239 1 17749392538266758492
12403814 3 17313101917692055061
12553582 1 18409172138218115363
12616971 3 17240484676198090712
12788726 201 18261397732236723136
13140716 1 18339923818238700657
13675066 3 17775281685702926529
13782708 43 17775570802191887694
14251757 5 18263659483511121782
14386348 63 17846781789123500094
14790565 3 17907871604478017025
15042514 8 18409732868063685403
15196674 1 18410855503236467073
15961568 22 18337949125531437520
16752209 62 18335137583428784507
17349148 13 17531242838351323090
17804303 29 18413107281770371377
18222031 100 18271242845583737871
18681886 176 18335987545436632142
19141452 34 17775287209553576743
200 152 16660361455005167348
20028762 73 18057605576318996671
20511986 3 17749380469308748548
20600515 1 18341603802643283648
21033648 29 17203316797785622730
21065201 7 18342740663643554390
21267235 1 18336834173342465739
2297311 6 18341621416440586854
23175994 123 17275389811151788601
23366157 5 17898571131364631508
23402539 116 18411413994881596423
23557571 272 18202002088851683992
23559900 14 18199756860306073190
3004659 81 18186518838617241462
335352 9 18410291433219312757
338550 245 18116151078435948810
474 4 17024044837814443868
5104073 3 18340491187644657945
573450 72 18260260832892254922
602551 16 18412539903842740162
67856867 119 18188213216844623380
6823239 73 18273217517291651872
77492 1 17676491605851733824
7970288 3 18338233894057117171
9709674 26 18194683906876165163

> <PUBCHEM_SHAPE_MULTIPOLES>
441.08
11.09
2.53
1.23
5.43
0.44
0
-4.19
-0.03
-3.91
0.01
2.58
-0.21
-0.04

> <PUBCHEM_SHAPE_SELFOVERLAP>
992.678

> <PUBCHEM_SHAPE_VOLUME>
230.5

> <PUBCHEM_COORDINATE_TYPE>
2
5
10

$$$$
