44584147
  -OEChem-12172501102D

107108  0     1  0  0  0  0  0999 V2000
   13.9253   -1.8561    0.0000 O   0  0  0  0  0  0  0  0  0  0  0  0
   15.8933   -2.5555    0.0000 O   0  0  0  0  0  0  0  0  0  0  0  0
   11.9573   -2.5555    0.0000 O   0  0  0  0  0  0  0  0  0  0  0  0
   17.9148    0.4301    0.0000 O   0  0  0  0  0  0  0  0  0  0  0  0
   19.6090    0.7902    0.0000 O   0  0  0  0  0  0  0  0  0  0  0  0
   24.6916    1.8706    0.0000 O   0  0  0  0  0  0  0  0  0  0  0  0
   27.4027    2.6538    0.0000 O   0  0  0  0  0  0  0  0  0  0  0  0
   25.6232    2.7470    0.0000 O   0  0  0  0  0  0  0  0  0  0  0  0
   14.7343   -1.2683    0.0000 C   0  0  2  0  0  0  0  0  0  0  0  0
   13.1163   -1.2683    0.0000 C   0  0  2  0  0  0  0  0  0  0  0  0
   14.4253   -0.3172    0.0000 C   0  0  0  0  0  0  0  0  0  0  0  0
   13.4253   -0.3172    0.0000 C   0  0  0  0  0  0  0  0  0  0  0  0
   15.6854   -1.5773    0.0000 C   0  0  1  0  0  0  0  0  0  0  0  0
   12.1652   -1.5773    0.0000 C   0  0  1  0  0  0  0  0  0  0  0  0
   16.4285   -0.9082    0.0000 C   0  0  0  0  0  0  0  0  0  0  0  0
   11.4221   -0.9082    0.0000 C   0  0  0  0  0  0  0  0  0  0  0  0
   17.3796   -1.2172    0.0000 C   0  0  0  0  0  0  0  0  0  0  0  0
   10.4710   -1.2172    0.0000 C   0  0  0  0  0  0  0  0  0  0  0  0
   18.1227   -0.5481    0.0000 C   0  0  2  0  0  0  0  0  0  0  0  0
    9.7279   -0.5481    0.0000 C   0  0  0  0  0  0  0  0  0  0  0  0
   19.0738   -0.8571    0.0000 C   0  0  0  0  0  0  0  0  0  0  0  0
   19.8169   -0.1879    0.0000 C   0  0  1  0  0  0  0  0  0  0  0  0
    8.7768   -0.8571    0.0000 C   0  0  0  0  0  0  0  0  0  0  0  0
   20.7680   -0.4970    0.0000 C   0  0  0  0  0  0  0  0  0  0  0  0
    8.0337   -0.1879    0.0000 C   0  0  0  0  0  0  0  0  0  0  0  0
   21.5111    0.1722    0.0000 C   0  0  0  0  0  0  0  0  0  0  0  0
    7.0826   -0.4970    0.0000 C   0  0  0  0  0  0  0  0  0  0  0  0
   22.4622   -0.1368    0.0000 C   0  0  0  0  0  0  0  0  0  0  0  0
    6.3395    0.1722    0.0000 C   0  0  0  0  0  0  0  0  0  0  0  0
   23.2053    0.5323    0.0000 C   0  0  0  0  0  0  0  0  0  0  0  0
   24.1564    0.2233    0.0000 C   0  0  0  0  0  0  0  0  0  0  0  0
    5.3884   -0.1368    0.0000 C   0  0  0  0  0  0  0  0  0  0  0  0
   24.8995    0.8924    0.0000 C   0  0  2  0  0  0  0  0  0  0  0  0
    4.6453    0.5323    0.0000 C   0  0  0  0  0  0  0  0  0  0  0  0
   25.8506    0.5834    0.0000 C   0  0  0  0  0  0  0  0  0  0  0  0
    3.6942    0.2233    0.0000 C   0  0  0  0  0  0  0  0  0  0  0  0
   26.5937    1.2525    0.0000 C   0  0  0  0  0  0  0  0  0  0  0  0
    2.9511    0.8924    0.0000 C   0  0  0  0  0  0  0  0  0  0  0  0
   27.5719    1.0446    0.0000 C   0  0  0  0  0  0  0  0  0  0  0  0
   28.0719    1.9106    0.0000 C   0  0  2  0  0  0  0  0  0  0  0  0
   26.4892    2.2470    0.0000 C   0  0  0  0  0  0  0  0  0  0  0  0
    2.0000    0.5834    0.0000 C   0  0  0  0  0  0  0  0  0  0  0  0
   29.0664    2.0152    0.0000 C   0  0  0  0  0  0  0  0  0  0  0  0
   14.8673   -2.1078    0.0000 H   0  0  0  0  0  0  0  0  0  0  0  0
   12.9833   -2.1078    0.0000 H   0  0  0  0  0  0  0  0  0  0  0  0
   15.0317   -0.1883    0.0000 H   0  0  0  0  0  0  0  0  0  0  0  0
   14.3605    0.2994    0.0000 H   0  0  0  0  0  0  0  0  0  0  0  0
   13.4901    0.2994    0.0000 H   0  0  0  0  0  0  0  0  0  0  0  0
   12.8188   -0.1883    0.0000 H   0  0  0  0  0  0  0  0  0  0  0  0
   16.2750   -1.7689    0.0000 H   0  0  0  0  0  0  0  0  0  0  0  0
   11.5756   -1.7689    0.0000 H   0  0  0  0  0  0  0  0  0  0  0  0
   16.7196   -0.3607    0.0000 H   0  0  0  0  0  0  0  0  0  0  0  0
   15.9399   -0.5265    0.0000 H   0  0  0  0  0  0  0  0  0  0  0  0
   11.9106   -0.5265    0.0000 H   0  0  0  0  0  0  0  0  0  0  0  0
   11.1310   -0.3607    0.0000 H   0  0  0  0  0  0  0  0  0  0  0  0
   17.0885   -1.7646    0.0000 H   0  0  0  0  0  0  0  0  0  0  0  0
   17.8681   -1.5989    0.0000 H   0  0  0  0  0  0  0  0  0  0  0  0
    9.9824   -1.5989    0.0000 H   0  0  0  0  0  0  0  0  0  0  0  0
   10.7621   -1.7646    0.0000 H   0  0  0  0  0  0  0  0  0  0  0  0
   18.5835   -0.1332    0.0000 H   0  0  0  0  0  0  0  0  0  0  0  0
   10.2164   -0.1663    0.0000 H   0  0  0  0  0  0  0  0  0  0  0  0
    9.4368   -0.0006    0.0000 H   0  0  0  0  0  0  0  0  0  0  0  0
   18.7827   -1.4045    0.0000 H   0  0  0  0  0  0  0  0  0  0  0  0
   19.5623   -1.2388    0.0000 H   0  0  0  0  0  0  0  0  0  0  0  0
   16.4829   -2.7470    0.0000 H   0  0  0  0  0  0  0  0  0  0  0  0
   11.3676   -2.7470    0.0000 H   0  0  0  0  0  0  0  0  0  0  0  0
   19.2272    0.0037    0.0000 H   0  0  0  0  0  0  0  0  0  0  0  0
    8.2882   -1.2388    0.0000 H   0  0  0  0  0  0  0  0  0  0  0  0
    9.0679   -1.4045    0.0000 H   0  0  0  0  0  0  0  0  0  0  0  0
   20.4769   -1.0444    0.0000 H   0  0  0  0  0  0  0  0  0  0  0  0
   21.2565   -0.8787    0.0000 H   0  0  0  0  0  0  0  0  0  0  0  0
    8.5222    0.1938    0.0000 H   0  0  0  0  0  0  0  0  0  0  0  0
    7.7426    0.3595    0.0000 H   0  0  0  0  0  0  0  0  0  0  0  0
   21.8022    0.7196    0.0000 H   0  0  0  0  0  0  0  0  0  0  0  0
   21.0225    0.5539    0.0000 H   0  0  0  0  0  0  0  0  0  0  0  0
   18.3755    0.8450    0.0000 H   0  0  0  0  0  0  0  0  0  0  0  0
    6.5940   -0.8787    0.0000 H   0  0  0  0  0  0  0  0  0  0  0  0
    7.3737   -1.0444    0.0000 H   0  0  0  0  0  0  0  0  0  0  0  0
   22.1711   -0.6843    0.0000 H   0  0  0  0  0  0  0  0  0  0  0  0
   22.9507   -0.5186    0.0000 H   0  0  0  0  0  0  0  0  0  0  0  0
   23.4964    1.0797    0.0000 H   0  0  0  0  0  0  0  0  0  0  0  0
   22.7167    0.9140    0.0000 H   0  0  0  0  0  0  0  0  0  0  0  0
    6.8280    0.5539    0.0000 H   0  0  0  0  0  0  0  0  0  0  0  0
    6.0484    0.7196    0.0000 H   0  0  0  0  0  0  0  0  0  0  0  0
   20.0697    1.2051    0.0000 H   0  0  0  0  0  0  0  0  0  0  0  0
   23.8653   -0.3242    0.0000 H   0  0  0  0  0  0  0  0  0  0  0  0
   24.6449   -0.1584    0.0000 H   0  0  0  0  0  0  0  0  0  0  0  0
    4.8998   -0.5186    0.0000 H   0  0  0  0  0  0  0  0  0  0  0  0
    5.6795   -0.6843    0.0000 H   0  0  0  0  0  0  0  0  0  0  0  0
   25.3603    1.3073    0.0000 H   0  0  0  0  0  0  0  0  0  0  0  0
    5.1338    0.9140    0.0000 H   0  0  0  0  0  0  0  0  0  0  0  0
    4.3542    1.0797    0.0000 H   0  0  0  0  0  0  0  0  0  0  0  0
   25.5595    0.0360    0.0000 H   0  0  0  0  0  0  0  0  0  0  0  0
   26.3391    0.2017    0.0000 H   0  0  0  0  0  0  0  0  0  0  0  0
    3.2056   -0.1584    0.0000 H   0  0  0  0  0  0  0  0  0  0  0  0
    3.9853   -0.3242    0.0000 H   0  0  0  0  0  0  0  0  0  0  0  0
    3.4396    1.2741    0.0000 H   0  0  0  0  0  0  0  0  0  0  0  0
    2.6600    1.4398    0.0000 H   0  0  0  0  0  0  0  0  0  0  0  0
   24.1019    2.0621    0.0000 H   0  0  0  0  0  0  0  0  0  0  0  0
   27.8240    0.4782    0.0000 H   0  0  0  0  0  0  0  0  0  0  0  0
   28.2940    2.4895    0.0000 H   0  0  0  0  0  0  0  0  0  0  0  0
    1.8084    1.1730    0.0000 H   0  0  0  0  0  0  0  0  0  0  0  0
    1.4103    0.3918    0.0000 H   0  0  0  0  0  0  0  0  0  0  0  0
    2.1916   -0.0063    0.0000 H   0  0  0  0  0  0  0  0  0  0  0  0
   29.1312    1.3986    0.0000 H   0  0  0  0  0  0  0  0  0  0  0  0
   29.6830    2.0800    0.0000 H   0  0  0  0  0  0  0  0  0  0  0  0
   29.0016    2.6318    0.0000 H   0  0  0  0  0  0  0  0  0  0  0  0
  1  9  1  0  0  0  0
  1 10  1  0  0  0  0
 13  2  1  1  0  0  0
  2 65  1  0  0  0  0
 14  3  1  6  0  0  0
  3 66  1  0  0  0  0
 19  4  1  1  0  0  0
  4 76  1  0  0  0  0
 22  5  1  6  0  0  0
  5 85  1  0  0  0  0
 33  6  1  1  0  0  0
  6 99  1  0  0  0  0
  7 40  1  0  0  0  0
  7 41  1  0  0  0  0
  8 41  2  0  0  0  0
  9 11  1  0  0  0  0
  9 13  1  0  0  0  0
  9 44  1  1  0  0  0
 10 12  1  0  0  0  0
 10 14  1  0  0  0  0
 10 45  1  6  0  0  0
 11 12  1  0  0  0  0
 11 46  1  0  0  0  0
 11 47  1  0  0  0  0
 12 48  1  0  0  0  0
 12 49  1  0  0  0  0
 13 15  1  0  0  0  0
 13 50  1  0  0  0  0
 14 16  1  0  0  0  0
 14 51  1  0  0  0  0
 15 17  1  0  0  0  0
 15 52  1  0  0  0  0
 15 53  1  0  0  0  0
 16 18  1  0  0  0  0
 16 54  1  0  0  0  0
 16 55  1  0  0  0  0
 17 19  1  0  0  0  0
 17 56  1  0  0  0  0
 17 57  1  0  0  0  0
 18 20  1  0  0  0  0
 18 58  1  0  0  0  0
 18 59  1  0  0  0  0
 19 21  1  0  0  0  0
 19 60  1  0  0  0  0
 20 23  1  0  0  0  0
 20 61  1  0  0  0  0
 20 62  1  0  0  0  0
 21 22  1  0  0  0  0
 21 63  1  0  0  0  0
 21 64  1  0  0  0  0
 22 24  1  0  0  0  0
 22 67  1  0  0  0  0
 23 25  1  0  0  0  0
 23 68  1  0  0  0  0
 23 69  1  0  0  0  0
 24 26  1  0  0  0  0
 24 70  1  0  0  0  0
 24 71  1  0  0  0  0
 25 27  1  0  0  0  0
 25 72  1  0  0  0  0
 25 73  1  0  0  0  0
 26 28  1  0  0  0  0
 26 74  1  0  0  0  0
 26 75  1  0  0  0  0
 27 29  1  0  0  0  0
 27 77  1  0  0  0  0
 27 78  1  0  0  0  0
 28 30  1  0  0  0  0
 28 79  1  0  0  0  0
 28 80  1  0  0  0  0
 29 32  1  0  0  0  0
 29 83  1  0  0  0  0
 29 84  1  0  0  0  0
 30 31  1  0  0  0  0
 30 81  1  0  0  0  0
 30 82  1  0  0  0  0
 31 33  1  0  0  0  0
 31 86  1  0  0  0  0
 31 87  1  0  0  0  0
 32 34  1  0  0  0  0
 32 88  1  0  0  0  0
 32 89  1  0  0  0  0
 33 35  1  0  0  0  0
 33 90  1  0  0  0  0
 34 36  1  0  0  0  0
 34 91  1  0  0  0  0
 34 92  1  0  0  0  0
 35 37  1  0  0  0  0
 35 93  1  0  0  0  0
 35 94  1  0  0  0  0
 36 38  1  0  0  0  0
 36 95  1  0  0  0  0
 36 96  1  0  0  0  0
 37 39  2  0  0  0  0
 37 41  1  0  0  0  0
 38 42  1  0  0  0  0
 38 97  1  0  0  0  0
 38 98  1  0  0  0  0
 39 40  1  0  0  0  0
 39100  1  0  0  0  0
 40 43  1  1  0  0  0
 40101  1  0  0  0  0
 42102  1  0  0  0  0
 42103  1  0  0  0  0
 42104  1  0  0  0  0
 43105  1  0  0  0  0
 43106  1  0  0  0  0
 43107  1  0  0  0  0
M  END
> <PUBCHEM_COMPOUND_CID>
44584147

> <PUBCHEM_COMPOUND_CANONICALIZED>
1

> <PUBCHEM_CACTVS_COMPLEXITY>
758

> <PUBCHEM_CACTVS_HBOND_ACCEPTOR>
8

> <PUBCHEM_CACTVS_HBOND_DONOR>
5

> <PUBCHEM_CACTVS_ROTATABLE_BOND>
26

> <PUBCHEM_CACTVS_SUBSKEYS>
AAADcfB8PAAAAAAAAAAAAAAAAAAAASIAAAAAAAAAAAAAAAAAAAAAGgAACAAADBSggAICCAAABgCIAiDSCAAAAAAgAAAACAEAAEgBFBIAIQACUAAFwAALIYPK6KyAAAAAAAAAAAAAAAAAAAAAAAAAAAAAAA==

> <PUBCHEM_IUPAC_OPENEYE_NAME>
(2S)-2-methyl-4-[(2R,8R,10R,13R)-2,8,10,13-tetrahydroxy-13-[(2R,5R)-5-[(1R)-1-hydroxytridecyl]tetrahydrofuran-2-yl]tridecyl]-2H-furan-5-one

> <PUBCHEM_IUPAC_CAS_NAME>
(2S)-2-methyl-4-[(2R,8R,10R,13R)-2,8,10,13-tetrahydroxy-13-[(2R,5R)-5-[(1R)-1-hydroxytridecyl]-2-oxolanyl]tridecyl]-2H-furan-5-one

> <PUBCHEM_IUPAC_NAME_MARKUP>
(2<I>S</I>)-2-methyl-4-[(2<I>R</I>,8<I>R</I>,10<I>R</I>,13<I>R</I>)-2,8,10,13-tetrahydroxy-13-[(2<I>R</I>,5<I>R</I>)-5-[(1<I>R</I>)-1-hydroxytridecyl]oxolan-2-yl]tridecyl]-2<I>H</I>-furan-5-one

> <PUBCHEM_IUPAC_NAME>
(2S)-2-methyl-4-[(2R,8R,10R,13R)-2,8,10,13-tetrahydroxy-13-[(2R,5R)-5-[(1R)-1-hydroxytridecyl]oxolan-2-yl]tridecyl]-2H-furan-5-one

> <PUBCHEM_IUPAC_SYSTEMATIC_NAME>
(2S)-2-methyl-4-[(2R,8R,10R,13R)-2,8,10,13-tetrakis(oxidanyl)-13-[(2R,5R)-5-[(1R)-1-oxidanyltridecyl]oxolan-2-yl]tridecyl]-2H-furan-5-one

> <PUBCHEM_IUPAC_TRADITIONAL_NAME>
(2S)-2-methyl-4-[(2R,8R,10R,13R)-2,8,10,13-tetrahydroxy-13-[(2R,5R)-5-[(1R)-1-hydroxytridecyl]tetrahydrofuran-2-yl]tridecyl]-2H-furan-5-one

> <PUBCHEM_IUPAC_INCHI>
InChI=1S/C35H64O8/c1-3-4-5-6-7-8-9-10-11-15-18-31(39)33-21-22-34(43-33)32(40)20-19-30(38)25-29(37)17-14-12-13-16-28(36)24-27-23-26(2)42-35(27)41/h23,26,28-34,36-40H,3-22,24-25H2,1-2H3/t26-,28+,29+,30+,31+,32+,33+,34+/m0/s1

> <PUBCHEM_IUPAC_INCHIKEY>
QAIKIRDKCUWJQV-GHRGOOLJSA-N

> <PUBCHEM_XLOGP3_AA>
7.4

> <PUBCHEM_EXACT_MASS>
612.46011900

> <PUBCHEM_MOLECULAR_FORMULA>
C35H64O8

> <PUBCHEM_MOLECULAR_WEIGHT>
612.9

> <PUBCHEM_SMILES>
CCCCCCCCCCCC[C@H]([C@H]1CC[C@@H](O1)[C@@H](CC[C@H](C[C@@H](CCCCC[C@H](CC2=C[C@@H](OC2=O)C)O)O)O)O)O

> <PUBCHEM_CONNECTIVITY_SMILES>
CCCCCCCCCCCCC(C1CCC(O1)C(CCC(CC(CCCCCC(CC2=CC(OC2=O)C)O)O)O)O)O

> <PUBCHEM_CACTVS_TPSA>
137

> <PUBCHEM_MONOISOTOPIC_WEIGHT>
612.46011900

> <PUBCHEM_TOTAL_CHARGE>
0

> <PUBCHEM_HEAVY_ATOM_COUNT>
43

> <PUBCHEM_ATOM_DEF_STEREO_COUNT>
8

> <PUBCHEM_ATOM_UDEF_STEREO_COUNT>
0

> <PUBCHEM_BOND_DEF_STEREO_COUNT>
0

> <PUBCHEM_BOND_UDEF_STEREO_COUNT>
0

> <PUBCHEM_ISOTOPIC_ATOM_COUNT>
0

> <PUBCHEM_COMPONENT_COUNT>
1

> <PUBCHEM_CACTVS_TAUTO_COUNT>
-1

> <PUBCHEM_COORDINATE_TYPE>
1
5
255

> <PUBCHEM_BONDANNOTATIONS>
10  45  6
13  2  5
14  3  6
19  4  5
40  43  5
22  5  6
33  6  5
9  44  5

$$$$
