441612
  -OEChem-12172501152D

110112  0     1  0  0  0  0  0999 V2000
   12.2311    1.1165    0.0000 O   0  0  0  0  0  0  0  0  0  0  0  0
   14.8002    1.9831    0.0000 O   0  0  0  0  0  0  0  0  0  0  0  0
   10.2631    0.4172    0.0000 O   0  0  0  0  0  0  0  0  0  0  0  0
   16.7682    2.6825    0.0000 O   0  0  0  0  0  0  0  0  0  0  0  0
    6.8747    1.1374    0.0000 O   0  0  0  0  0  0  0  0  0  0  0  0
   28.9467   -1.7836    0.0000 O   0  0  0  0  0  0  0  0  0  0  0  0
   28.8535   -0.0040    0.0000 O   0  0  0  0  0  0  0  0  0  0  0  0
   13.0401    1.7043    0.0000 C   0  0  1  0  0  0  0  0  0  0  0  0
   13.9912    1.3953    0.0000 C   0  0  1  0  0  0  0  0  0  0  0  0
   12.7311    2.6554    0.0000 C   0  0  0  0  0  0  0  0  0  0  0  0
   14.3002    0.4443    0.0000 C   0  0  0  0  0  0  0  0  0  0  0  0
   11.4221    1.7043    0.0000 C   0  0  2  0  0  0  0  0  0  0  0  0
   15.6092    1.3953    0.0000 C   0  0  2  0  0  0  0  0  0  0  0  0
   11.7311    2.6554    0.0000 C   0  0  0  0  0  0  0  0  0  0  0  0
   15.3002    0.4443    0.0000 C   0  0  0  0  0  0  0  0  0  0  0  0
   10.4710    1.3953    0.0000 C   0  0  2  0  0  0  0  0  0  0  0  0
   16.5602    1.7043    0.0000 C   0  0  1  0  0  0  0  0  0  0  0  0
    9.7279    2.0644    0.0000 C   0  0  0  0  0  0  0  0  0  0  0  0
   17.3034    1.0352    0.0000 C   0  0  0  0  0  0  0  0  0  0  0  0
    8.7768    1.7554    0.0000 C   0  0  0  0  0  0  0  0  0  0  0  0
   18.2544    1.3442    0.0000 C   0  0  0  0  0  0  0  0  0  0  0  0
    8.0337    2.4246    0.0000 C   0  0  0  0  0  0  0  0  0  0  0  0
   18.9976    0.6751    0.0000 C   0  0  0  0  0  0  0  0  0  0  0  0
    7.0826    2.1155    0.0000 C   0  0  2  0  0  0  0  0  0  0  0  0
   19.9486    0.9841    0.0000 C   0  0  0  0  0  0  0  0  0  0  0  0
    6.3395    2.7847    0.0000 C   0  0  0  0  0  0  0  0  0  0  0  0
   20.6918    0.3150    0.0000 C   0  0  0  0  0  0  0  0  0  0  0  0
   21.6428    0.6240    0.0000 C   0  0  0  0  0  0  0  0  0  0  0  0
    5.3884    2.4757    0.0000 C   0  0  0  0  0  0  0  0  0  0  0  0
   22.3860   -0.0451    0.0000 C   0  0  0  0  0  0  0  0  0  0  0  0
    4.6453    3.1448    0.0000 C   0  0  0  0  0  0  0  0  0  0  0  0
   23.3370    0.2639    0.0000 C   0  0  0  0  0  0  0  0  0  0  0  0
    3.6942    2.8358    0.0000 C   0  0  0  0  0  0  0  0  0  0  0  0
   24.0802   -0.4053    0.0000 C   0  0  0  0  0  0  0  0  0  0  0  0
   25.0312   -0.0962    0.0000 C   0  0  0  0  0  0  0  0  0  0  0  0
    2.9511    3.5049    0.0000 C   0  0  0  0  0  0  0  0  0  0  0  0
   25.7744   -0.7654    0.0000 C   0  0  0  0  0  0  0  0  0  0  0  0
   26.7255   -0.4564    0.0000 C   0  0  0  0  0  0  0  0  0  0  0  0
    2.0000    3.1959    0.0000 C   0  0  0  0  0  0  0  0  0  0  0  0
   27.4686   -1.1255    0.0000 C   0  0  0  0  0  0  0  0  0  0  0  0
   27.3641   -2.1200    0.0000 C   0  0  0  0  0  0  0  0  0  0  0  0
   28.2776   -2.5268    0.0000 C   0  0  2  0  0  0  0  0  0  0  0  0
   28.4467   -0.9176    0.0000 C   0  0  0  0  0  0  0  0  0  0  0  0
   28.4855   -3.5049    0.0000 C   0  0  0  0  0  0  0  0  0  0  0  0
   13.1731    0.8648    0.0000 H   0  0  0  0  0  0  0  0  0  0  0  0
   13.3901    0.7943    0.0000 H   0  0  0  0  0  0  0  0  0  0  0  0
   13.3375    2.7843    0.0000 H   0  0  0  0  0  0  0  0  0  0  0  0
   12.6663    3.2720    0.0000 H   0  0  0  0  0  0  0  0  0  0  0  0
   13.6937    0.3153    0.0000 H   0  0  0  0  0  0  0  0  0  0  0  0
   14.3650   -0.1724    0.0000 H   0  0  0  0  0  0  0  0  0  0  0  0
   11.2891    0.8648    0.0000 H   0  0  0  0  0  0  0  0  0  0  0  0
   16.2102    0.7943    0.0000 H   0  0  0  0  0  0  0  0  0  0  0  0
   11.7959    3.2720    0.0000 H   0  0  0  0  0  0  0  0  0  0  0  0
   11.1246    2.7843    0.0000 H   0  0  0  0  0  0  0  0  0  0  0  0
   15.2354   -0.1724    0.0000 H   0  0  0  0  0  0  0  0  0  0  0  0
   15.9066    0.3153    0.0000 H   0  0  0  0  0  0  0  0  0  0  0  0
    9.8814    1.2037    0.0000 H   0  0  0  0  0  0  0  0  0  0  0  0
   16.0995    2.1192    0.0000 H   0  0  0  0  0  0  0  0  0  0  0  0
   10.2164    2.4462    0.0000 H   0  0  0  0  0  0  0  0  0  0  0  0
    9.4368    2.6119    0.0000 H   0  0  0  0  0  0  0  0  0  0  0  0
   16.8148    0.6535    0.0000 H   0  0  0  0  0  0  0  0  0  0  0  0
   17.5945    0.4878    0.0000 H   0  0  0  0  0  0  0  0  0  0  0  0
    8.2882    1.3737    0.0000 H   0  0  0  0  0  0  0  0  0  0  0  0
    9.0679    1.2080    0.0000 H   0  0  0  0  0  0  0  0  0  0  0  0
   18.7430    1.7259    0.0000 H   0  0  0  0  0  0  0  0  0  0  0  0
   17.9634    1.8916    0.0000 H   0  0  0  0  0  0  0  0  0  0  0  0
    9.6734    0.2256    0.0000 H   0  0  0  0  0  0  0  0  0  0  0  0
   17.3578    2.8741    0.0000 H   0  0  0  0  0  0  0  0  0  0  0  0
    8.5222    2.8063    0.0000 H   0  0  0  0  0  0  0  0  0  0  0  0
    7.7426    2.9720    0.0000 H   0  0  0  0  0  0  0  0  0  0  0  0
   18.5090    0.2934    0.0000 H   0  0  0  0  0  0  0  0  0  0  0  0
   19.2887    0.1277    0.0000 H   0  0  0  0  0  0  0  0  0  0  0  0
    6.4930    1.9239    0.0000 H   0  0  0  0  0  0  0  0  0  0  0  0
   20.4372    1.3658    0.0000 H   0  0  0  0  0  0  0  0  0  0  0  0
   19.6576    1.5315    0.0000 H   0  0  0  0  0  0  0  0  0  0  0  0
    6.8280    3.1664    0.0000 H   0  0  0  0  0  0  0  0  0  0  0  0
    6.0484    3.3321    0.0000 H   0  0  0  0  0  0  0  0  0  0  0  0
   20.2032   -0.0667    0.0000 H   0  0  0  0  0  0  0  0  0  0  0  0
   20.9829   -0.2325    0.0000 H   0  0  0  0  0  0  0  0  0  0  0  0
   22.1314    1.0057    0.0000 H   0  0  0  0  0  0  0  0  0  0  0  0
   21.3518    1.1714    0.0000 H   0  0  0  0  0  0  0  0  0  0  0  0
    4.8998    2.0939    0.0000 H   0  0  0  0  0  0  0  0  0  0  0  0
    5.6795    1.9282    0.0000 H   0  0  0  0  0  0  0  0  0  0  0  0
   21.8974   -0.4269    0.0000 H   0  0  0  0  0  0  0  0  0  0  0  0
   22.6771   -0.5926    0.0000 H   0  0  0  0  0  0  0  0  0  0  0  0
    6.2850    0.9458    0.0000 H   0  0  0  0  0  0  0  0  0  0  0  0
    5.1338    3.5265    0.0000 H   0  0  0  0  0  0  0  0  0  0  0  0
    4.3542    3.6922    0.0000 H   0  0  0  0  0  0  0  0  0  0  0  0
   23.8256    0.6456    0.0000 H   0  0  0  0  0  0  0  0  0  0  0  0
   23.0460    0.8113    0.0000 H   0  0  0  0  0  0  0  0  0  0  0  0
    3.2056    2.4541    0.0000 H   0  0  0  0  0  0  0  0  0  0  0  0
    3.9853    2.2883    0.0000 H   0  0  0  0  0  0  0  0  0  0  0  0
   23.5916   -0.7870    0.0000 H   0  0  0  0  0  0  0  0  0  0  0  0
   24.3713   -0.9527    0.0000 H   0  0  0  0  0  0  0  0  0  0  0  0
   25.5198    0.2855    0.0000 H   0  0  0  0  0  0  0  0  0  0  0  0
   24.7402    0.4512    0.0000 H   0  0  0  0  0  0  0  0  0  0  0  0
    3.4396    3.8866    0.0000 H   0  0  0  0  0  0  0  0  0  0  0  0
    2.6600    4.0523    0.0000 H   0  0  0  0  0  0  0  0  0  0  0  0
   25.2858   -1.1471    0.0000 H   0  0  0  0  0  0  0  0  0  0  0  0
   26.0655   -1.3128    0.0000 H   0  0  0  0  0  0  0  0  0  0  0  0
   27.2140   -0.0746    0.0000 H   0  0  0  0  0  0  0  0  0  0  0  0
   26.4344    0.0911    0.0000 H   0  0  0  0  0  0  0  0  0  0  0  0
    1.8084    3.7855    0.0000 H   0  0  0  0  0  0  0  0  0  0  0  0
    1.4103    3.0043    0.0000 H   0  0  0  0  0  0  0  0  0  0  0  0
    2.1916    2.6062    0.0000 H   0  0  0  0  0  0  0  0  0  0  0  0
   26.8271   -2.4300    0.0000 H   0  0  0  0  0  0  0  0  0  0  0  0
   28.8765   -2.6872    0.0000 H   0  0  0  0  0  0  0  0  0  0  0  0
   27.8791   -3.6338    0.0000 H   0  0  0  0  0  0  0  0  0  0  0  0
   28.6144   -4.1113    0.0000 H   0  0  0  0  0  0  0  0  0  0  0  0
   29.0920   -3.3760    0.0000 H   0  0  0  0  0  0  0  0  0  0  0  0
  1  8  1  0  0  0  0
  1 12  1  0  0  0  0
  2  9  1  0  0  0  0
  2 13  1  0  0  0  0
 16  3  1  1  0  0  0
  3 67  1  0  0  0  0
 17  4  1  6  0  0  0
  4 68  1  0  0  0  0
 24  5  1  1  0  0  0
  5 86  1  0  0  0  0
  6 42  1  0  0  0  0
  6 43  1  0  0  0  0
  7 43  2  0  0  0  0
  8  9  1  0  0  0  0
  8 10  1  0  0  0  0
  8 45  1  1  0  0  0
  9 11  1  0  0  0  0
  9 46  1  1  0  0  0
 10 14  1  0  0  0  0
 10 47  1  0  0  0  0
 10 48  1  0  0  0  0
 11 15  1  0  0  0  0
 11 49  1  0  0  0  0
 11 50  1  0  0  0  0
 12 14  1  0  0  0  0
 12 16  1  0  0  0  0
 12 51  1  6  0  0  0
 13 15  1  0  0  0  0
 13 17  1  0  0  0  0
 13 52  1  6  0  0  0
 14 53  1  0  0  0  0
 14 54  1  0  0  0  0
 15 55  1  0  0  0  0
 15 56  1  0  0  0  0
 16 18  1  0  0  0  0
 16 57  1  0  0  0  0
 17 19  1  0  0  0  0
 17 58  1  0  0  0  0
 18 20  1  0  0  0  0
 18 59  1  0  0  0  0
 18 60  1  0  0  0  0
 19 21  1  0  0  0  0
 19 61  1  0  0  0  0
 19 62  1  0  0  0  0
 20 22  1  0  0  0  0
 20 63  1  0  0  0  0
 20 64  1  0  0  0  0
 21 23  1  0  0  0  0
 21 65  1  0  0  0  0
 21 66  1  0  0  0  0
 22 24  1  0  0  0  0
 22 69  1  0  0  0  0
 22 70  1  0  0  0  0
 23 25  1  0  0  0  0
 23 71  1  0  0  0  0
 23 72  1  0  0  0  0
 24 26  1  0  0  0  0
 24 73  1  0  0  0  0
 25 27  1  0  0  0  0
 25 74  1  0  0  0  0
 25 75  1  0  0  0  0
 26 29  1  0  0  0  0
 26 76  1  0  0  0  0
 26 77  1  0  0  0  0
 27 28  1  0  0  0  0
 27 78  1  0  0  0  0
 27 79  1  0  0  0  0
 28 30  1  0  0  0  0
 28 80  1  0  0  0  0
 28 81  1  0  0  0  0
 29 31  1  0  0  0  0
 29 82  1  0  0  0  0
 29 83  1  0  0  0  0
 30 32  1  0  0  0  0
 30 84  1  0  0  0  0
 30 85  1  0  0  0  0
 31 33  1  0  0  0  0
 31 87  1  0  0  0  0
 31 88  1  0  0  0  0
 32 34  1  0  0  0  0
 32 89  1  0  0  0  0
 32 90  1  0  0  0  0
 33 36  1  0  0  0  0
 33 91  1  0  0  0  0
 33 92  1  0  0  0  0
 34 35  1  0  0  0  0
 34 93  1  0  0  0  0
 34 94  1  0  0  0  0
 35 37  1  0  0  0  0
 35 95  1  0  0  0  0
 35 96  1  0  0  0  0
 36 39  1  0  0  0  0
 36 97  1  0  0  0  0
 36 98  1  0  0  0  0
 37 38  1  0  0  0  0
 37 99  1  0  0  0  0
 37100  1  0  0  0  0
 38 40  1  0  0  0  0
 38101  1  0  0  0  0
 38102  1  0  0  0  0
 39103  1  0  0  0  0
 39104  1  0  0  0  0
 39105  1  0  0  0  0
 40 41  2  0  0  0  0
 40 43  1  0  0  0  0
 41 42  1  0  0  0  0
 41106  1  0  0  0  0
 42 44  1  1  0  0  0
 42107  1  0  0  0  0
 44108  1  0  0  0  0
 44109  1  0  0  0  0
 44110  1  0  0  0  0
M  END
> <PUBCHEM_COMPOUND_CID>
441612

> <PUBCHEM_COMPOUND_CANONICALIZED>
1

> <PUBCHEM_CACTVS_COMPLEXITY>
801

> <PUBCHEM_CACTVS_HBOND_ACCEPTOR>
7

> <PUBCHEM_CACTVS_HBOND_DONOR>
3

> <PUBCHEM_CACTVS_ROTATABLE_BOND>
25

> <PUBCHEM_CACTVS_SUBSKEYS>
AAADcfB8OAAAAAAAAAAAAAAAAAAAASJEAAAAAAAAAAAAAAAAAAAAGgAACAAADBSggAICCAAABgCIAiDSCAAAAAAgAAAACAEAAEgBFBIAIQACUAAEgAALIYOI6KyAAAAAAAAAAAAAAAAAAAAAAAAAAAAAAA==

> <PUBCHEM_IUPAC_OPENEYE_NAME>
(2S)-4-[(13R)-13-[(2R,5R)-5-[(2R,5R)-5-[(1S,5S)-1,5-dihydroxyundecyl]tetrahydrofuran-2-yl]tetrahydrofuran-2-yl]-13-hydroxy-tridecyl]-2-methyl-2H-furan-5-one

> <PUBCHEM_IUPAC_CAS_NAME>
(2S)-4-[(13R)-13-[(2R,5R)-5-[(2R,5R)-5-[(1S,5S)-1,5-dihydroxyundecyl]-2-oxolanyl]-2-oxolanyl]-13-hydroxytridecyl]-2-methyl-2H-furan-5-one

> <PUBCHEM_IUPAC_NAME_MARKUP>
(2<I>S</I>)-4-[(13<I>R</I>)-13-[(2<I>R</I>,5<I>R</I>)-5-[(2<I>R</I>,5<I>R</I>)-5-[(1<I>S</I>,5<I>S</I>)-1,5-dihydroxyundecyl]oxolan-2-yl]oxolan-2-yl]-13-hydroxytridecyl]-2-methyl-2<I>H</I>-furan-5-one

> <PUBCHEM_IUPAC_NAME>
(2S)-4-[(13R)-13-[(2R,5R)-5-[(2R,5R)-5-[(1S,5S)-1,5-dihydroxyundecyl]oxolan-2-yl]oxolan-2-yl]-13-hydroxytridecyl]-2-methyl-2H-furan-5-one

> <PUBCHEM_IUPAC_SYSTEMATIC_NAME>
(2S)-4-[(13R)-13-[(2R,5R)-5-[(2R,5R)-5-[(1S,5S)-1,5-bis(oxidanyl)undecyl]oxolan-2-yl]oxolan-2-yl]-13-oxidanyl-tridecyl]-2-methyl-2H-furan-5-one

> <PUBCHEM_IUPAC_TRADITIONAL_NAME>
(2S)-4-[(13R)-13-[(2R,5R)-5-[(2R,5R)-5-[(1S,5S)-1,5-dihydroxyundecyl]tetrahydrofuran-2-yl]tetrahydrofuran-2-yl]-13-hydroxy-tridecyl]-2-methyl-2H-furan-5-one

> <PUBCHEM_IUPAC_INCHI>
InChI=1S/C37H66O7/c1-3-4-5-15-19-30(38)20-17-22-32(40)34-24-26-36(44-34)35-25-23-33(43-35)31(39)21-16-13-11-9-7-6-8-10-12-14-18-29-27-28(2)42-37(29)41/h27-28,30-36,38-40H,3-26H2,1-2H3/t28-,30-,31+,32-,33+,34+,35+,36+/m0/s1

> <PUBCHEM_IUPAC_INCHIKEY>
DAEFUOXKPZLQMM-AUDZWCKFSA-N

> <PUBCHEM_XLOGP3_AA>
9.5

> <PUBCHEM_EXACT_MASS>
622.48085444

> <PUBCHEM_MOLECULAR_FORMULA>
C37H66O7

> <PUBCHEM_MOLECULAR_WEIGHT>
622.9

> <PUBCHEM_SMILES>
CCCCCC[C@@H](CCC[C@@H]([C@H]1CC[C@@H](O1)[C@H]2CC[C@@H](O2)[C@@H](CCCCCCCCCCCCC3=C[C@@H](OC3=O)C)O)O)O

> <PUBCHEM_CONNECTIVITY_SMILES>
CCCCCCC(CCCC(C1CCC(O1)C2CCC(O2)C(CCCCCCCCCCCCC3=CC(OC3=O)C)O)O)O

> <PUBCHEM_CACTVS_TPSA>
105

> <PUBCHEM_MONOISOTOPIC_WEIGHT>
622.48085444

> <PUBCHEM_TOTAL_CHARGE>
0

> <PUBCHEM_HEAVY_ATOM_COUNT>
44

> <PUBCHEM_ATOM_DEF_STEREO_COUNT>
8

> <PUBCHEM_ATOM_UDEF_STEREO_COUNT>
0

> <PUBCHEM_BOND_DEF_STEREO_COUNT>
0

> <PUBCHEM_BOND_UDEF_STEREO_COUNT>
0

> <PUBCHEM_ISOTOPIC_ATOM_COUNT>
0

> <PUBCHEM_COMPONENT_COUNT>
1

> <PUBCHEM_CACTVS_TAUTO_COUNT>
-1

> <PUBCHEM_COORDINATE_TYPE>
1
5
255

> <PUBCHEM_BONDANNOTATIONS>
12  51  6
13  52  6
16  3  5
17  4  6
42  44  5
24  5  5
8  45  5
9  46  5

$$$$
