56929881
  -OEChem-12172501163D

 44 47  0     1  0  0  0  0  0999 V2000
    2.4945    2.0088    0.0109 O   0  0  0  0  0  0  0  0  0  0  0  0
    0.8731    4.1478   -0.0713 O   0  0  0  0  0  0  0  0  0  0  0  0
   -2.9233   -1.1304    0.0953 N   0  3  0  0  0  0  0  0  0  0  0  0
   -1.4072   -1.0538   -0.2625 C   0  0  1  0  0  0  0  0  0  0  0  0
   -3.6392    0.0047   -0.6558 C   0  0  0  0  0  0  0  0  0  0  0  0
   -0.8004    0.3421   -0.1932 C   0  0  0  0  0  0  0  0  0  0  0  0
   -0.5766   -2.0439    0.5774 C   0  0  0  0  0  0  0  0  0  0  0  0
   -3.1246    1.3701   -0.2209 C   0  0  0  0  0  0  0  0  0  0  0  0
   -1.6250    1.4822   -0.2167 C   0  0  0  0  0  0  0  0  0  0  0  0
   -3.1952   -1.0344    1.5976 C   0  0  0  0  0  0  0  0  0  0  0  0
   -3.5245   -2.4499   -0.4099 C   0  0  0  0  0  0  0  0  0  0  0  0
    0.6133    0.4707   -0.1745 C   0  0  0  0  0  0  0  0  0  0  0  0
    0.8812   -1.9890    0.1767 C   0  0  0  0  0  0  0  0  0  0  0  0
    1.4579   -0.7490   -0.1798 C   0  0  0  0  0  0  0  0  0  0  0  0
   -1.0441    2.7544   -0.1731 C   0  0  0  0  0  0  0  0  0  0  0  0
    1.1570    1.7664   -0.1318 C   0  0  0  0  0  0  0  0  0  0  0  0
    0.3379    2.8952   -0.1308 C   0  0  0  0  0  0  0  0  0  0  0  0
    1.6565   -3.1581    0.2117 C   0  0  0  0  0  0  0  0  0  0  0  0
    2.8182   -0.7417   -0.5374 C   0  0  0  0  0  0  0  0  0  0  0  0
    3.0027   -3.1186   -0.1369 C   0  0  0  0  0  0  0  0  0  0  0  0
    3.5814   -1.9129   -0.5160 C   0  0  0  0  0  0  0  0  0  0  0  0
    2.9864    2.1392    1.3413 C   0  0  0  0  0  0  0  0  0  0  0  0
   -1.3536   -1.3507   -1.3207 H   0  0  0  0  0  0  0  0  0  0  0  0
   -3.4594   -0.1577   -1.7262 H   0  0  0  0  0  0  0  0  0  0  0  0
   -4.7147   -0.0860   -0.4638 H   0  0  0  0  0  0  0  0  0  0  0  0
   -0.9474   -3.0648    0.4419 H   0  0  0  0  0  0  0  0  0  0  0  0
   -0.6245   -1.8066    1.6471 H   0  0  0  0  0  0  0  0  0  0  0  0
   -3.4958    1.6116    0.7823 H   0  0  0  0  0  0  0  0  0  0  0  0
   -3.5434    2.1213   -0.9023 H   0  0  0  0  0  0  0  0  0  0  0  0
   -2.8755   -1.9655    2.0737 H   0  0  0  0  0  0  0  0  0  0  0  0
   -2.6404   -0.1904    2.0135 H   0  0  0  0  0  0  0  0  0  0  0  0
   -4.2711   -0.8987    1.7434 H   0  0  0  0  0  0  0  0  0  0  0  0
   -3.0811   -3.2804    0.1437 H   0  0  0  0  0  0  0  0  0  0  0  0
   -4.6044   -2.4236   -0.2339 H   0  0  0  0  0  0  0  0  0  0  0  0
   -3.3148   -2.5420   -1.4794 H   0  0  0  0  0  0  0  0  0  0  0  0
   -1.6823    3.6353   -0.1659 H   0  0  0  0  0  0  0  0  0  0  0  0
    1.2120   -4.1050    0.5072 H   0  0  0  0  0  0  0  0  0  0  0  0
    3.3249    0.1441   -0.9030 H   0  0  0  0  0  0  0  0  0  0  0  0
    3.5975   -4.0268   -0.1179 H   0  0  0  0  0  0  0  0  0  0  0  0
    4.6276   -1.8819   -0.8070 H   0  0  0  0  0  0  0  0  0  0  0  0
    0.1541    4.8028   -0.0749 H   0  0  0  0  0  0  0  0  0  0  0  0
    4.0779    2.1904    1.2983 H   0  0  0  0  0  0  0  0  0  0  0  0
    2.7030    1.2767    1.9532 H   0  0  0  0  0  0  0  0  0  0  0  0
    2.6143    3.0597    1.8014 H   0  0  0  0  0  0  0  0  0  0  0  0
  1 16  1  0  0  0  0
  1 22  1  0  0  0  0
  2 17  1  0  0  0  0
  2 41  1  0  0  0  0
  3  4  1  0  0  0  0
  3  5  1  0  0  0  0
  3 10  1  0  0  0  0
  3 11  1  0  0  0  0
  4  6  1  0  0  0  0
  4  7  1  0  0  0  0
  4 23  1  0  0  0  0
  5  8  1  0  0  0  0
  5 24  1  0  0  0  0
  5 25  1  0  0  0  0
  6  9  1  0  0  0  0
  6 12  2  0  0  0  0
  7 13  1  0  0  0  0
  7 26  1  0  0  0  0
  7 27  1  0  0  0  0
  8  9  1  0  0  0  0
  8 28  1  0  0  0  0
  8 29  1  0  0  0  0
  9 15  2  0  0  0  0
 10 30  1  0  0  0  0
 10 31  1  0  0  0  0
 10 32  1  0  0  0  0
 11 33  1  0  0  0  0
 11 34  1  0  0  0  0
 11 35  1  0  0  0  0
 12 14  1  0  0  0  0
 12 16  1  0  0  0  0
 13 14  1  0  0  0  0
 13 18  2  0  0  0  0
 14 19  2  0  0  0  0
 15 17  1  0  0  0  0
 15 36  1  0  0  0  0
 16 17  2  0  0  0  0
 18 20  1  0  0  0  0
 18 37  1  0  0  0  0
 19 21  1  0  0  0  0
 19 38  1  0  0  0  0
 20 21  2  0  0  0  0
 20 39  1  0  0  0  0
 21 40  1  0  0  0  0
 22 42  1  0  0  0  0
 22 43  1  0  0  0  0
 22 44  1  0  0  0  0
M  CHG  1   3   1
M  END
> <PUBCHEM_COMPOUND_CID>
56929881

> <PUBCHEM_CONFORMER_RMSD>
0.6

> <PUBCHEM_CONFORMER_DIVERSEORDER>
1
2

> <PUBCHEM_MMFF94_PARTIAL_CHARGES>
26
1 -0.36
10 0.5
11 0.5
13 -0.14
15 -0.15
16 0.08
17 0.08
18 -0.15
19 -0.15
2 -0.53
20 -0.15
21 -0.15
22 0.28
3 -1.01
36 0.15
37 0.15
38 0.15
39 0.15
4 0.65
40 0.15
41 0.45
5 0.5
6 -0.14
7 0.14
8 0.14
9 -0.14

> <PUBCHEM_EFFECTIVE_ROTOR_COUNT>
1.8

> <PUBCHEM_PHARMACOPHORE_FEATURES>
7
1 1 acceptor
1 2 donor
1 3 cation
6 13 14 18 19 20 21 rings
6 3 4 5 6 8 9 rings
6 4 6 7 12 13 14 rings
6 6 9 12 15 16 17 rings

> <PUBCHEM_HEAVY_ATOM_COUNT>
22

> <PUBCHEM_ATOM_DEF_STEREO_COUNT>
1

> <PUBCHEM_ATOM_UDEF_STEREO_COUNT>
0

> <PUBCHEM_BOND_DEF_STEREO_COUNT>
0

> <PUBCHEM_BOND_UDEF_STEREO_COUNT>
0

> <PUBCHEM_ISOTOPIC_ATOM_COUNT>
0

> <PUBCHEM_COMPONENT_COUNT>
1

> <PUBCHEM_CACTVS_TAUTO_COUNT>
9

> <PUBCHEM_CONFORMER_ID>
0364AE5900000001

> <PUBCHEM_MMFF94_ENERGY>
91.7603

> <PUBCHEM_FEATURE_SELFOVERLAP>
35.605

> <PUBCHEM_SHAPE_FINGERPRINT>
10319926 262 17474077945241165986
10411042 1 18410294683661138895
10616163 171 17978233751116221206
10967382 1 18338236093005454430
1100329 8 17907579129530573856
11578080 2 17487871493997308241
11680986 33 18410289199045371961
12054548 360 18338520724978410430
12553582 1 18194401095848328695
12788726 201 17831584171637470474
13027679 85 18265618671650696669
13140716 1 18409730616799176561
138480 1 18410575093300648813
13965767 371 16103366804410109066
14081887 123 18051393086164863914
14178342 30 18341046414957152481
14223421 5 18410286991157647848
14790565 3 17976559512692805493
15006816 218 18267018534509757608
16728300 4 17537392488447902402
16752209 62 17472126285365492973
16945 1 18194395593926468791
19591789 44 17833278892680493916
19930381 70 18193836170347166175
20028762 73 17263851780553601455
20510252 161 17405423300191297120
20775438 99 17691632997805446167
20905425 154 18341897394001674596
21029758 11 18194674865817201821
21197605 99 17038957702785045275
21267235 1 18049172063760150559
21524375 3 17697039506252070118
221490 88 18408610279023149191
22182313 1 18335411374856799661
23184049 29 18266740186432658462
2334 1 18409450322933262237
23557571 272 17696470681522438022
23559900 14 18267015073351439182
238 59 17688266438903003703
2748010 2 18409162216553504829
3091708 16 9068519555098246338
335352 9 18122343471956548773
34934 24 18265608797404825583
352729 6 17473263652740297630
539174 4 18056791859960841337
6438718 38 17483387530876063925
7364860 26 18412823607453770550
81228 2 17975979760857892426
9709674 26 18336536205606805911

> <PUBCHEM_SHAPE_MULTIPOLES>
436.03
5.81
4.59
0.9
0.44
2.46
-0.28
-3.52
0.21
-1.48
-0.3
0.16
-0.05
0.76

> <PUBCHEM_SHAPE_SELFOVERLAP>
958.992

> <PUBCHEM_SHAPE_VOLUME>
236.1

> <PUBCHEM_COORDINATE_TYPE>
2
5
10

$$$$
