3035657
  -OEChem-12172501113D

 52 52  0     1  0  0  0  0  0999 V2000
   -6.5993   -0.6781   -0.0329 O   0  0  0  0  0  0  0  0  0  0  0  0
   -4.1812   -1.9752    0.4204 O   0  0  0  0  0  0  0  0  0  0  0  0
   -8.7487   -0.1042   -0.5954 O   0  0  0  0  0  0  0  0  0  0  0  0
   -5.4467    0.0348    0.4367 C   0  0  1  0  0  0  0  0  0  0  0  0
   -4.1842   -0.6342   -0.0725 C   0  0  1  0  0  0  0  0  0  0  0  0
   -2.8979    0.0571    0.3940 C   0  0  0  0  0  0  0  0  0  0  0  0
   -1.5916   -0.5324   -0.1452 C   0  0  0  0  0  0  0  0  0  0  0  0
   -5.6335    1.4396   -0.0906 C   0  0  0  0  0  0  0  0  0  0  0  0
   -0.3501    0.2456    0.2966 C   0  0  0  0  0  0  0  0  0  0  0  0
    0.9628   -0.3868   -0.1780 C   0  0  0  0  0  0  0  0  0  0  0  0
    2.2448    0.2978    0.3062 C   0  0  0  0  0  0  0  0  0  0  0  0
    3.5218   -0.3411   -0.2433 C   0  0  0  0  0  0  0  0  0  0  0  0
   -7.1325    1.6086   -0.0259 C   0  0  0  0  0  0  0  0  0  0  0  0
    4.7687    0.3761    0.2785 C   0  0  0  0  0  0  0  0  0  0  0  0
    6.0455   -0.2369   -0.2991 C   0  0  0  0  0  0  0  0  0  0  0  0
   -7.6146    0.2091   -0.2682 C   0  0  0  0  0  0  0  0  0  0  0  0
    7.2940    0.4581    0.2491 C   0  0  0  0  0  0  0  0  0  0  0  0
    8.5707   -0.1783   -0.3049 C   0  0  0  0  0  0  0  0  0  0  0  0
    9.8507    0.4609    0.2376 C   0  0  0  0  0  0  0  0  0  0  0  0
   11.1213   -0.1205   -0.3631 C   0  0  0  0  0  0  0  0  0  0  0  0
   -5.4815    0.0063    1.5334 H   0  0  0  0  0  0  0  0  0  0  0  0
   -4.1982   -0.7012   -1.1670 H   0  0  0  0  0  0  0  0  0  0  0  0
   -2.9318    1.1150    0.1079 H   0  0  0  0  0  0  0  0  0  0  0  0
   -2.8556    0.0248    1.4907 H   0  0  0  0  0  0  0  0  0  0  0  0
   -1.6307   -0.5526   -1.2412 H   0  0  0  0  0  0  0  0  0  0  0  0
   -1.5024   -1.5736    0.1875 H   0  0  0  0  0  0  0  0  0  0  0  0
   -5.0963    2.1952    0.4897 H   0  0  0  0  0  0  0  0  0  0  0  0
   -5.3058    1.5149   -1.1351 H   0  0  0  0  0  0  0  0  0  0  0  0
   -0.3368    0.3076    1.3917 H   0  0  0  0  0  0  0  0  0  0  0  0
   -0.4106    1.2745   -0.0782 H   0  0  0  0  0  0  0  0  0  0  0  0
    0.9868   -1.4350    0.1463 H   0  0  0  0  0  0  0  0  0  0  0  0
    0.9638   -0.4033   -1.2753 H   0  0  0  0  0  0  0  0  0  0  0  0
    2.2145    1.3545    0.0132 H   0  0  0  0  0  0  0  0  0  0  0  0
    2.2675    0.2743    1.4027 H   0  0  0  0  0  0  0  0  0  0  0  0
    3.5056   -0.3041   -1.3392 H   0  0  0  0  0  0  0  0  0  0  0  0
    3.5563   -1.3986    0.0446 H   0  0  0  0  0  0  0  0  0  0  0  0
   -7.4636    1.9345    0.9642 H   0  0  0  0  0  0  0  0  0  0  0  0
   -7.4935    2.2901   -0.7993 H   0  0  0  0  0  0  0  0  0  0  0  0
    4.7213    1.4393    0.0130 H   0  0  0  0  0  0  0  0  0  0  0  0
    4.7935    0.3169    1.3734 H   0  0  0  0  0  0  0  0  0  0  0  0
    6.0303   -0.1581   -1.3929 H   0  0  0  0  0  0  0  0  0  0  0  0
    6.0825   -1.3049   -0.0522 H   0  0  0  0  0  0  0  0  0  0  0  0
    7.3008    0.3940    1.3439 H   0  0  0  0  0  0  0  0  0  0  0  0
    7.2702    1.5226   -0.0131 H   0  0  0  0  0  0  0  0  0  0  0  0
   -4.9940   -2.4048    0.1032 H   0  0  0  0  0  0  0  0  0  0  0  0
    8.5783   -1.2490   -0.0657 H   0  0  0  0  0  0  0  0  0  0  0  0
    8.5657   -0.0987   -1.3991 H   0  0  0  0  0  0  0  0  0  0  0  0
    9.8302    1.5391    0.0388 H   0  0  0  0  0  0  0  0  0  0  0  0
    9.8837    0.3394    1.3268 H   0  0  0  0  0  0  0  0  0  0  0  0
   11.1403    0.0213   -1.4483 H   0  0  0  0  0  0  0  0  0  0  0  0
   12.0023    0.3713    0.0608 H   0  0  0  0  0  0  0  0  0  0  0  0
   11.1955   -1.1925   -0.1554 H   0  0  0  0  0  0  0  0  0  0  0  0
  1  4  1  0  0  0  0
  1 16  1  0  0  0  0
  2  5  1  0  0  0  0
  2 45  1  0  0  0  0
  3 16  2  0  0  0  0
  4  5  1  0  0  0  0
  4  8  1  0  0  0  0
  4 21  1  0  0  0  0
  5  6  1  0  0  0  0
  5 22  1  0  0  0  0
  6  7  1  0  0  0  0
  6 23  1  0  0  0  0
  6 24  1  0  0  0  0
  7  9  1  0  0  0  0
  7 25  1  0  0  0  0
  7 26  1  0  0  0  0
  8 13  1  0  0  0  0
  8 27  1  0  0  0  0
  8 28  1  0  0  0  0
  9 10  1  0  0  0  0
  9 29  1  0  0  0  0
  9 30  1  0  0  0  0
 10 11  1  0  0  0  0
 10 31  1  0  0  0  0
 10 32  1  0  0  0  0
 11 12  1  0  0  0  0
 11 33  1  0  0  0  0
 11 34  1  0  0  0  0
 12 14  1  0  0  0  0
 12 35  1  0  0  0  0
 12 36  1  0  0  0  0
 13 16  1  0  0  0  0
 13 37  1  0  0  0  0
 13 38  1  0  0  0  0
 14 15  1  0  0  0  0
 14 39  1  0  0  0  0
 14 40  1  0  0  0  0
 15 17  1  0  0  0  0
 15 41  1  0  0  0  0
 15 42  1  0  0  0  0
 17 18  1  0  0  0  0
 17 43  1  0  0  0  0
 17 44  1  0  0  0  0
 18 19  1  0  0  0  0
 18 46  1  0  0  0  0
 18 47  1  0  0  0  0
 19 20  1  0  0  0  0
 19 48  1  0  0  0  0
 19 49  1  0  0  0  0
 20 50  1  0  0  0  0
 20 51  1  0  0  0  0
 20 52  1  0  0  0  0
M  END
> <PUBCHEM_COMPOUND_CID>
3035657

> <PUBCHEM_CONFORMER_RMSD>
1.4

> <PUBCHEM_CONFORMER_DIVERSEORDER>
1
51
14
17
28
5
4
58
23
52
27
3
72
10
26
55
61
47
2
32
70
22
18
13
12
76
41
68
59
60
67
65
33
40
75
7
21
35
73
71
66
46
6
56
57
11
50
64
77
69
31
36
42
45
49
25
34
62
16
48
43
74
8
53
63
44
20
37
54
15
30
24
38
19
29
39
9

> <PUBCHEM_MMFF94_PARTIAL_CHARGES>
8
1 -0.43
13 0.06
16 0.66
2 -0.68
3 -0.57
4 0.28
45 0.4
5 0.28

> <PUBCHEM_EFFECTIVE_ROTOR_COUNT>
12.8

> <PUBCHEM_PHARMACOPHORE_FEATURES>
5
1 2 acceptor
1 2 donor
1 20 hydrophobe
1 3 acceptor
5 1 4 8 13 16 rings

> <PUBCHEM_HEAVY_ATOM_COUNT>
20

> <PUBCHEM_ATOM_DEF_STEREO_COUNT>
2

> <PUBCHEM_ATOM_UDEF_STEREO_COUNT>
0

> <PUBCHEM_BOND_DEF_STEREO_COUNT>
0

> <PUBCHEM_BOND_UDEF_STEREO_COUNT>
0

> <PUBCHEM_ISOTOPIC_ATOM_COUNT>
0

> <PUBCHEM_COMPONENT_COUNT>
1

> <PUBCHEM_CACTVS_TAUTO_COUNT>
2

> <PUBCHEM_CONFORMER_ID>
002E520900000001

> <PUBCHEM_MMFF94_ENERGY>
9.2806

> <PUBCHEM_FEATURE_SELFOVERLAP>
25.371

> <PUBCHEM_SHAPE_FINGERPRINT>
11315181 36 17775569745576671859
12091667 2 18410576197951230203
13885169 127 18411138017452650224
14123256 10 13542465366963613133
14251764 18 18040994029363341875
14251764 46 18410293614018265342
14428016 248 17240490213123254804
15061470 23 18186237339015686116
15510794 2 18202568376200591942
155225 1 18333731287262861821
16120349 18 14189286085644715826
18335252 98 8070033272661033024
21095086 128 12247682660961046868
21150785 3 12967129415155585676
21362267 313 18262512578026562456
232437 2 18343582949653768158
23521765 1 18341894095144849138
23581129 1 18409448089539575830
246663 6 8214141863577295328
28498 318 18059858351310614926
33684 2 17775567537894850982
59567204 34 18341895139656385145
67123 10 18343582949991131396
8209 1 18272370876052471144

> <PUBCHEM_SHAPE_MULTIPOLES>
393.98
38.24
1.1
0.69
58.83
0.01
0
4.87
-3.82
-2.08
0.05
0.02
0
0.42

> <PUBCHEM_SHAPE_SELFOVERLAP>
748.462

> <PUBCHEM_SHAPE_VOLUME>
244.2

> <PUBCHEM_COORDINATE_TYPE>
2
5
10

$$$$
