179491
  -OEChem-12172501193D

 45 48  0     1  0  0  0  0  0999 V2000
   -0.3105   -2.3354   -0.8034 O   0  0  0  0  0  0  0  0  0  0  0  0
   -2.0925   -1.5164    0.5378 O   0  0  0  0  0  0  0  0  0  0  0  0
    2.1412   -3.3537   -0.6552 O   0  0  0  0  0  0  0  0  0  0  0  0
   -4.4594   -0.3150    0.3225 O   0  0  0  0  0  0  0  0  0  0  0  0
    2.6153    2.9972    0.0288 N   0  0  0  0  0  0  0  0  0  0  0  0
    1.4185    2.1897    0.3125 C   0  0  2  0  0  0  0  0  0  0  0  0
    1.6037    0.7068    0.0296 C   0  0  0  0  0  0  0  0  0  0  0  0
    0.2366    2.7448   -0.4981 C   0  0  0  0  0  0  0  0  0  0  0  0
    2.9007    0.1563    0.0014 C   0  0  0  0  0  0  0  0  0  0  0  0
    0.4590   -0.1101   -0.1403 C   0  0  0  0  0  0  0  0  0  0  0  0
    4.1131    1.0424    0.1328 C   0  0  0  0  0  0  0  0  0  0  0  0
   -1.0060    1.9119   -0.2754 C   0  0  0  0  0  0  0  0  0  0  0  0
    3.7806    2.4220    0.7010 C   0  0  0  0  0  0  0  0  0  0  0  0
   -0.8876    0.5116   -0.1085 C   0  0  0  0  0  0  0  0  0  0  0  0
    0.6637   -1.4827   -0.3608 C   0  0  0  0  0  0  0  0  0  0  0  0
    3.0632   -1.2128   -0.2221 C   0  0  0  0  0  0  0  0  0  0  0  0
   -2.0696   -0.2241    0.0882 C   0  0  0  0  0  0  0  0  0  0  0  0
    1.9497   -2.0274   -0.3988 C   0  0  0  0  0  0  0  0  0  0  0  0
   -2.2657    2.5291   -0.2854 C   0  0  0  0  0  0  0  0  0  0  0  0
   -3.3206    0.4002    0.0933 C   0  0  0  0  0  0  0  0  0  0  0  0
   -3.4189    1.7738   -0.0984 C   0  0  0  0  0  0  0  0  0  0  0  0
   -2.1641   -1.7046    1.9470 C   0  0  0  0  0  0  0  0  0  0  0  0
    2.1626   -4.2321    0.4670 C   0  0  0  0  0  0  0  0  0  0  0  0
   -5.1129   -0.8715   -0.8155 C   0  0  0  0  0  0  0  0  0  0  0  0
    1.1840    2.2821    1.3834 H   0  0  0  0  0  0  0  0  0  0  0  0
    0.4591    2.7420   -1.5738 H   0  0  0  0  0  0  0  0  0  0  0  0
    0.0482    3.7847   -0.2018 H   0  0  0  0  0  0  0  0  0  0  0  0
    2.4653    3.9495    0.3611 H   0  0  0  0  0  0  0  0  0  0  0  0
    4.8574    0.5625    0.7792 H   0  0  0  0  0  0  0  0  0  0  0  0
    4.5584    1.1569   -0.8638 H   0  0  0  0  0  0  0  0  0  0  0  0
    3.6003    2.3602    1.7819 H   0  0  0  0  0  0  0  0  0  0  0  0
    4.6428    3.0837    0.5620 H   0  0  0  0  0  0  0  0  0  0  0  0
    4.0613   -1.6415   -0.2718 H   0  0  0  0  0  0  0  0  0  0  0  0
   -2.3515    3.6025   -0.4336 H   0  0  0  0  0  0  0  0  0  0  0  0
   -4.3883    2.2642   -0.0934 H   0  0  0  0  0  0  0  0  0  0  0  0
    0.0702   -3.2131   -0.9764 H   0  0  0  0  0  0  0  0  0  0  0  0
   -1.9866   -2.7630    2.1574 H   0  0  0  0  0  0  0  0  0  0  0  0
   -3.1542   -1.4402    2.3297 H   0  0  0  0  0  0  0  0  0  0  0  0
   -1.3955   -1.1182    2.4614 H   0  0  0  0  0  0  0  0  0  0  0  0
    2.2910   -5.2541    0.1003 H   0  0  0  0  0  0  0  0  0  0  0  0
    1.2208   -4.1753    1.0222 H   0  0  0  0  0  0  0  0  0  0  0  0
    3.0016   -3.9886    1.1265 H   0  0  0  0  0  0  0  0  0  0  0  0
   -5.9966   -1.4157   -0.4714 H   0  0  0  0  0  0  0  0  0  0  0  0
   -4.4512   -1.5715   -1.3355 H   0  0  0  0  0  0  0  0  0  0  0  0
   -5.4337   -0.0791   -1.4992 H   0  0  0  0  0  0  0  0  0  0  0  0
  1 15  1  0  0  0  0
  1 36  1  0  0  0  0
  2 17  1  0  0  0  0
  2 22  1  0  0  0  0
  3 18  1  0  0  0  0
  3 23  1  0  0  0  0
  4 20  1  0  0  0  0
  4 24  1  0  0  0  0
  5  6  1  0  0  0  0
  5 13  1  0  0  0  0
  5 28  1  0  0  0  0
  6  7  1  0  0  0  0
  6  8  1  0  0  0  0
  6 25  1  0  0  0  0
  7  9  1  0  0  0  0
  7 10  2  0  0  0  0
  8 12  1  0  0  0  0
  8 26  1  0  0  0  0
  8 27  1  0  0  0  0
  9 11  1  0  0  0  0
  9 16  2  0  0  0  0
 10 14  1  0  0  0  0
 10 15  1  0  0  0  0
 11 13  1  0  0  0  0
 11 29  1  0  0  0  0
 11 30  1  0  0  0  0
 12 14  2  0  0  0  0
 12 19  1  0  0  0  0
 13 31  1  0  0  0  0
 13 32  1  0  0  0  0
 14 17  1  0  0  0  0
 15 18  2  0  0  0  0
 16 18  1  0  0  0  0
 16 33  1  0  0  0  0
 17 20  2  0  0  0  0
 19 21  2  0  0  0  0
 19 34  1  0  0  0  0
 20 21  1  0  0  0  0
 21 35  1  0  0  0  0
 22 37  1  0  0  0  0
 22 38  1  0  0  0  0
 22 39  1  0  0  0  0
 23 40  1  0  0  0  0
 23 41  1  0  0  0  0
 23 42  1  0  0  0  0
 24 43  1  0  0  0  0
 24 44  1  0  0  0  0
 24 45  1  0  0  0  0
M  END
> <PUBCHEM_COMPOUND_CID>
179491

> <PUBCHEM_CONFORMER_RMSD>
0.6

> <PUBCHEM_CONFORMER_DIVERSEORDER>
1
4
2
3

> <PUBCHEM_MMFF94_PARTIAL_CHARGES>
27
1 -0.53
11 0.14
12 -0.14
13 0.27
15 0.08
16 -0.15
17 0.08
18 0.08
19 -0.15
2 -0.36
20 0.08
21 -0.15
22 0.28
23 0.28
24 0.28
28 0.36
3 -0.36
33 0.15
34 0.15
35 0.15
36 0.45
4 -0.36
5 -0.9
6 0.41
7 -0.14
8 0.14
9 -0.14

> <PUBCHEM_EFFECTIVE_ROTOR_COUNT>
3.8

> <PUBCHEM_PHARMACOPHORE_FEATURES>
10
1 1 donor
1 2 acceptor
1 3 acceptor
1 4 acceptor
1 5 cation
1 5 donor
6 12 14 17 19 20 21 rings
6 5 6 7 9 11 13 rings
6 6 7 8 10 12 14 rings
6 7 9 10 15 16 18 rings

> <PUBCHEM_HEAVY_ATOM_COUNT>
24

> <PUBCHEM_ATOM_DEF_STEREO_COUNT>
1

> <PUBCHEM_ATOM_UDEF_STEREO_COUNT>
0

> <PUBCHEM_BOND_DEF_STEREO_COUNT>
0

> <PUBCHEM_BOND_UDEF_STEREO_COUNT>
0

> <PUBCHEM_ISOTOPIC_ATOM_COUNT>
0

> <PUBCHEM_COMPONENT_COUNT>
1

> <PUBCHEM_CACTVS_TAUTO_COUNT>
3

> <PUBCHEM_CONFORMER_ID>
0002BD2300000001

> <PUBCHEM_MMFF94_ENERGY>
107.9911

> <PUBCHEM_FEATURE_SELFOVERLAP>
50.843

> <PUBCHEM_SHAPE_FINGERPRINT>
10074138 170 17547820385896391728
10090160 65 18338506564428803791
10366900 7 18335991925322176386
10411042 1 17979355252860599031
10608611 8 18337953389710580941
10616163 171 18336830908581784240
10906281 52 18261969538951181293
10967382 1 18411699910986645524
1100329 8 16825587596746409655
11578080 2 13696452047875429469
11680986 33 18336274525722879881
12011746 2 18409730698419619788
12403259 226 18047751498957515807
12553582 1 17548992056879466158
12592029 89 18341331166771785626
12788726 201 17183636390490553538
12839892 36 18267283461225163224
13140716 1 18195525015685401816
13544592 271 18263082278824625419
138480 1 18123469384806289094
14223421 5 18409733941125098744
14787075 74 17845086457946999081
14790565 3 18265906941514291052
14863182 85 18263372540977623053
15042514 8 17617376621082829232
15196674 1 18411417284953574165
16728300 4 17608051366762748010
16945 1 18410301327763782700
17492 89 18340202986723293959
19049666 15 18263370204604714307
19591789 44 18339927120952188220
19930381 70 18410852123276436303
20028762 73 18057597870519270678
20691752 17 17750239119080900329
20775438 99 17543579277390407845
20905425 154 18267870467216653740
21197605 99 17978518851641558611
21267235 1 18411427223365108572
21285901 2 17895182312590388165
221490 88 18266464213087572782
23184049 29 17905045854961386118
2334 1 17834679674694354204
23366157 5 18115593638761310308
23419403 2 18043511833755514711
23558518 356 18263651671435218985
23559900 14 18123181308290836082
2748010 2 18410579508801569620
335352 9 17618222806438129301
3380486 145 17974583686772111395
33824 294 18411979195387311508
350125 39 18412266120925973332
5104073 3 18410576141615730065
58807428 26 18268975648570512712
59755656 215 18409729560274190549
7364860 26 18341050731404169564
8809292 202 17831589677600543990
9709674 26 18409172073740903851
9981440 41 18338226184484170288

> <PUBCHEM_SHAPE_MULTIPOLES>
465.45
7.38
4.28
0.91
4.64
2.07
0.29
-0.45
0.03
-3.44
0.07
0.37
0.4
0.79

> <PUBCHEM_SHAPE_SELFOVERLAP>
1029.193

> <PUBCHEM_SHAPE_VOLUME>
249.1

> <PUBCHEM_COORDINATE_TYPE>
2
5
10

$$$$
