160503
  -OEChem-12172501183D

 39 43  0     1  0  0  0  0  0999 V2000
   -0.5970    2.8427    0.1632 O   0  0  0  0  0  0  0  0  0  0  0  0
   -2.9912    2.9945    0.1301 O   0  0  0  0  0  0  0  0  0  0  0  0
    5.1026   -0.4283    0.0720 O   0  0  0  0  0  0  0  0  0  0  0  0
   -1.5972   -3.2265    0.2224 N   0  0  0  0  0  0  0  0  0  0  0  0
   -0.7019   -2.1354   -0.1902 C   0  0  1  0  0  0  0  0  0  0  0  0
   -1.3478   -0.7606   -0.0975 C   0  0  0  0  0  0  0  0  0  0  0  0
    0.5644   -2.1822    0.6792 C   0  0  0  0  0  0  0  0  0  0  0  0
   -0.5118    0.3880   -0.0453 C   0  0  0  0  0  0  0  0  0  0  0  0
   -2.7633   -0.6536   -0.1156 C   0  0  0  0  0  0  0  0  0  0  0  0
   -3.6241   -1.8922   -0.1273 C   0  0  0  0  0  0  0  0  0  0  0  0
    1.4986   -1.0495    0.3168 C   0  0  0  0  0  0  0  0  0  0  0  0
   -2.8554   -3.1534   -0.5177 C   0  0  0  0  0  0  0  0  0  0  0  0
    0.9610    0.2100   -0.0429 C   0  0  0  0  0  0  0  0  0  0  0  0
   -1.1726    1.6111    0.0365 C   0  0  0  0  0  0  0  0  0  0  0  0
   -3.3689    0.6035   -0.0460 C   0  0  0  0  0  0  0  0  0  0  0  0
   -2.5505    1.7091    0.0317 C   0  0  0  0  0  0  0  0  0  0  0  0
    2.8858   -1.2527    0.3703 C   0  0  0  0  0  0  0  0  0  0  0  0
    1.8685    1.2203   -0.4049 C   0  0  0  0  0  0  0  0  0  0  0  0
    3.7584   -0.2250    0.0297 C   0  0  0  0  0  0  0  0  0  0  0  0
   -1.7456    3.7073    0.2040 C   0  0  0  0  0  0  0  0  0  0  0  0
    3.2501    1.0066   -0.3658 C   0  0  0  0  0  0  0  0  0  0  0  0
    5.9379    0.6665   -0.3030 C   0  0  0  0  0  0  0  0  0  0  0  0
   -0.4167   -2.2951   -1.2400 H   0  0  0  0  0  0  0  0  0  0  0  0
    1.0686   -3.1464    0.5352 H   0  0  0  0  0  0  0  0  0  0  0  0
    0.3203   -2.0923    1.7465 H   0  0  0  0  0  0  0  0  0  0  0  0
   -4.0468   -2.0197    0.8777 H   0  0  0  0  0  0  0  0  0  0  0  0
   -4.4588   -1.7567   -0.8254 H   0  0  0  0  0  0  0  0  0  0  0  0
   -1.7838   -3.1615    1.2232 H   0  0  0  0  0  0  0  0  0  0  0  0
   -3.4628   -4.0371   -0.2937 H   0  0  0  0  0  0  0  0  0  0  0  0
   -2.6607   -3.1726   -1.5974 H   0  0  0  0  0  0  0  0  0  0  0  0
   -4.4488    0.7078   -0.0358 H   0  0  0  0  0  0  0  0  0  0  0  0
    3.2844   -2.2190    0.6702 H   0  0  0  0  0  0  0  0  0  0  0  0
    1.5268    2.1942   -0.7428 H   0  0  0  0  0  0  0  0  0  0  0  0
   -1.6891    4.4076   -0.6372 H   0  0  0  0  0  0  0  0  0  0  0  0
   -1.7218    4.2791    1.1386 H   0  0  0  0  0  0  0  0  0  0  0  0
    3.8693    1.8475   -0.6603 H   0  0  0  0  0  0  0  0  0  0  0  0
    5.8157    1.5168    0.3765 H   0  0  0  0  0  0  0  0  0  0  0  0
    5.7862    0.9475   -1.3507 H   0  0  0  0  0  0  0  0  0  0  0  0
    6.9751    0.3286   -0.2092 H   0  0  0  0  0  0  0  0  0  0  0  0
  1 14  1  0  0  0  0
  1 20  1  0  0  0  0
  2 16  1  0  0  0  0
  2 20  1  0  0  0  0
  3 19  1  0  0  0  0
  3 22  1  0  0  0  0
  4  5  1  0  0  0  0
  4 12  1  0  0  0  0
  4 28  1  0  0  0  0
  5  6  1  0  0  0  0
  5  7  1  0  0  0  0
  5 23  1  0  0  0  0
  6  8  2  0  0  0  0
  6  9  1  0  0  0  0
  7 11  1  0  0  0  0
  7 24  1  0  0  0  0
  7 25  1  0  0  0  0
  8 13  1  0  0  0  0
  8 14  1  0  0  0  0
  9 10  1  0  0  0  0
  9 15  2  0  0  0  0
 10 12  1  0  0  0  0
 10 26  1  0  0  0  0
 10 27  1  0  0  0  0
 11 13  2  0  0  0  0
 11 17  1  0  0  0  0
 12 29  1  0  0  0  0
 12 30  1  0  0  0  0
 13 18  1  0  0  0  0
 14 16  2  0  0  0  0
 15 16  1  0  0  0  0
 15 31  1  0  0  0  0
 17 19  2  0  0  0  0
 17 32  1  0  0  0  0
 18 21  2  0  0  0  0
 18 33  1  0  0  0  0
 19 21  1  0  0  0  0
 20 34  1  0  0  0  0
 20 35  1  0  0  0  0
 21 36  1  0  0  0  0
 22 37  1  0  0  0  0
 22 38  1  0  0  0  0
 22 39  1  0  0  0  0
M  END
> <PUBCHEM_COMPOUND_CID>
160503

> <PUBCHEM_CONFORMER_RMSD>
0.6

> <PUBCHEM_CONFORMER_DIVERSEORDER>
1

> <PUBCHEM_MMFF94_PARTIAL_CHARGES>
25
1 -0.36
10 0.14
11 -0.14
12 0.27
14 0.08
15 -0.15
16 0.08
17 -0.15
18 -0.15
19 0.08
2 -0.36
20 0.56
21 -0.15
22 0.28
28 0.36
3 -0.36
31 0.15
32 0.15
33 0.15
36 0.15
4 -0.9
5 0.41
6 -0.14
7 0.14
9 -0.14

> <PUBCHEM_EFFECTIVE_ROTOR_COUNT>
2.4

> <PUBCHEM_PHARMACOPHORE_FEATURES>
10
1 1 acceptor
1 2 acceptor
1 3 acceptor
1 4 cation
1 4 donor
5 1 2 14 16 20 rings
6 11 13 17 18 19 21 rings
6 4 5 6 9 10 12 rings
6 5 6 7 8 11 13 rings
6 6 8 9 14 15 16 rings

> <PUBCHEM_HEAVY_ATOM_COUNT>
22

> <PUBCHEM_ATOM_DEF_STEREO_COUNT>
1

> <PUBCHEM_ATOM_UDEF_STEREO_COUNT>
0

> <PUBCHEM_BOND_DEF_STEREO_COUNT>
0

> <PUBCHEM_BOND_UDEF_STEREO_COUNT>
0

> <PUBCHEM_ISOTOPIC_ATOM_COUNT>
0

> <PUBCHEM_COMPONENT_COUNT>
1

> <PUBCHEM_CACTVS_TAUTO_COUNT>
1

> <PUBCHEM_CONFORMER_ID>
000272F700000001

> <PUBCHEM_MMFF94_ENERGY>
68.5817

> <PUBCHEM_FEATURE_SELFOVERLAP>
50.992

> <PUBCHEM_SHAPE_FINGERPRINT>
10319926 262 18270094870341287306
10411042 1 18050849111087409631
10493431 412 18269846315714335137
10616163 171 18411419522795150214
10967382 1 16681471786295421555
1100329 8 18338802320546794065
11135609 187 18120359974893688533
11578080 2 17345460673276978307
12107183 9 17902784168771380554
12173636 292 18267298733781084805
12390115 104 18127989519736444304
12403259 226 18199743803447302560
12553582 1 18266732666119366691
12788726 201 18335133219684327802
12838862 33 18337372882337132853
12954195 1 18341342119497657054
13027679 85 18266175209602735583
13140716 1 18265340688355550443
138480 1 16393525062605568481
14081887 123 18341314674239904488
14178342 30 18264751226117838642
14508225 48 18197484332916758071
14790565 3 18052827944143964505
15042514 8 18410018770867042971
15196674 1 18409167671747416106
15442244 35 18263921047452042714
16087824 20 18411136923591659645
16752209 62 18339349803937555227
16945 1 18338797801950846867
17492 89 18409448064213916746
19591789 44 17690002236803125814
20510252 161 18343022159762760001
20775438 99 16401922625924664263
21029758 11 18194957668039170023
21236236 1 18411419523232545246
21267235 1 18264777721170109702
2297311 6 18340780341859505878
2334 1 18265612272260110803
23402539 116 18341889735795534414
23557571 272 18201445791691451212
23558518 356 18262245421469067930
23559900 14 18341324613137495120
238 59 16599528551863455405
25147074 1 18040713646379391346
2748010 2 16173134145781652123
283562 15 18408601487066787027
3091708 16 9130191184091569337
3178227 256 18336841870556609963
335352 9 18339079406319947791
350125 39 18409451383832700657
352729 6 18267581300154040595
4214541 1 18410573977231533556
484989 97 18190451857205522367
5104073 3 18409445852589589786
7097593 13 17755282497239661154
7364860 26 17403175894266273033
7808743 9 18410855417769716104
9709674 26 18343306946639576710

> <PUBCHEM_SHAPE_MULTIPOLES>
430.16
8.08
3.92
0.67
11.9
1.27
0
-0.28
-0.74
-4.69
0.21
0.05
-0.09
-0.64

> <PUBCHEM_SHAPE_SELFOVERLAP>
975.371

> <PUBCHEM_SHAPE_VOLUME>
223.9

> <PUBCHEM_COORDINATE_TYPE>
2
5
10

$$$$
